
     RDKit          3D

 34 34  0  0  0  0  0  0  0  0999 V2000
    3.6536    0.9211    1.4120 C   0  0  0  0  0  0  0  0  0  0  0  0
   -3.6684   -1.6211   -0.9687 C   0  0  0  0  0  0  0  0  0  0  0  0
    3.1950   -2.2037   -1.1312 C   0  0  0  0  0  0  0  0  0  0  0  0
   -0.8874    3.4282   -0.1264 C   0  0  0  0  0  0  0  0  0  0  0  0
    1.1989    1.4222    1.2951 C   0  0  0  0  0  0  0  0  0  0  0  0
   -1.9000   -0.7482    0.5987 C   0  0  0  0  0  0  0  0  0  0  0  0
    0.5612   -1.2009    0.6841 C   0  0  0  0  0  0  0  0  0  0  0  0
    2.2345    0.4783    1.1818 C   0  0  0  0  0  0  0  0  0  0  0  0
   -2.2928   -0.9566   -0.8818 C   0  0  0  0  0  0  0  0  0  0  0  0
   -0.4795   -0.2579    0.8015 C   0  0  0  0  0  0  0  0  0  0  0  0
    1.9064   -0.8456    0.8576 C   0  0  0  0  0  0  0  0  0  0  0  0
   -0.1483    1.0764    1.0913 C   0  0  0  0  0  0  0  0  0  0  0  0
   -2.3187    0.3027   -1.6342 N   0  0  0  0  0  0  0  0  0  0  0  0
    3.1462   -2.1245    0.6780 S   0  0  0  0  0  0  0  0  0  0  0  0
   -1.3813    2.3682    1.2595 S   0  0  0  0  0  0  0  0  0  0  0  0
    4.0956    0.3712    2.2490 H   0  0  0  0  0  0  0  0  0  0  0  0
    4.2540    0.7668    0.5097 H   0  0  0  0  0  0  0  0  0  0  0  0
    3.7069    1.9869    1.6594 H   0  0  0  0  0  0  0  0  0  0  0  0
   -3.9494   -1.8112   -2.0106 H   0  0  0  0  0  0  0  0  0  0  0  0
   -3.6657   -2.5848   -0.4480 H   0  0  0  0  0  0  0  0  0  0  0  0
   -4.4462   -0.9954   -0.5166 H   0  0  0  0  0  0  0  0  0  0  0  0
    3.4617   -1.2295   -1.5502 H   0  0  0  0  0  0  0  0  0  0  0  0
    2.2272   -2.5179   -1.5312 H   0  0  0  0  0  0  0  0  0  0  0  0
    3.9499   -2.9326   -1.4379 H   0  0  0  0  0  0  0  0  0  0  0  0
   -1.6299    4.2212   -0.2496 H   0  0  0  0  0  0  0  0  0  0  0  0
   -0.8351    2.8550   -1.0556 H   0  0  0  0  0  0  0  0  0  0  0  0
    0.0826    3.8936    0.0669 H   0  0  0  0  0  0  0  0  0  0  0  0
    1.4502    2.4487    1.5572 H   0  0  0  0  0  0  0  0  0  0  0  0
   -1.9958   -1.7057    1.1307 H   0  0  0  0  0  0  0  0  0  0  0  0
   -2.6236   -0.0928    1.0964 H   0  0  0  0  0  0  0  0  0  0  0  0
    0.3114   -2.2363    0.4568 H   0  0  0  0  0  0  0  0  0  0  0  0
   -1.5629   -1.6178   -1.3635 H   0  0  0  0  0  0  0  0  0  0  0  0
   -2.7560    0.1588   -2.5426 H   0  0  0  0  0  0  0  0  0  0  0  0
   -2.8943    0.9830   -1.1375 H   0  0  0  0  0  0  0  0  0  0  0  0
  1  8  1  0
  2  9  1  0
  3 14  1  0
  4 15  1  0
  5  8  2  0
  5 12  1  0
  6  9  1  0
  6 10  1  0
  7 10  1  0
  7 11  2  0
  8 11  1  0
  9 13  1  0
 10 12  2  0
 11 14  1  0
 12 15  1  0
  1 16  1  0
  1 17  1  0
  1 18  1  0
  2 19  1  0
  2 20  1  0
  2 21  1  0
  3 22  1  0
  3 23  1  0
  3 24  1  0
  4 25  1  0
  4 26  1  0
  4 27  1  0
  5 28  1  0
  6 29  1  0
  6 30  1  0
  7 31  1  0
  9 32  1  0
 13 33  1  0
 13 34  1  0
M  END
