
     RDKit          3D

 26 29  0  0  0  0  0  0  0  0999 V2000
    3.3370   -0.0503   -0.1465 C   0  0  0  0  0  0  0  0  0  0  0  0
    2.2822   -0.9429    0.0564 C   0  0  0  0  0  0  0  0  0  0  0  0
    1.7622    1.7680   -0.2571 C   0  0  0  0  0  0  0  0  0  0  0  0
   -2.0094   -0.3671   -0.9136 C   0  0  0  0  0  0  0  0  0  0  0  0
   -2.2586    2.8398    0.3705 C   0  0  0  0  0  0  0  0  0  0  0  0
    0.0798   -2.6623    0.9747 C   0  0  0  0  0  0  0  0  0  0  0  0
    3.0732    1.3026   -0.3027 C   0  0  0  0  0  0  0  0  0  0  0  0
    0.6764    0.8876   -0.0639 C   0  0  0  0  0  0  0  0  0  0  0  0
    0.9457   -0.4908    0.0923 C   0  0  0  0  0  0  0  0  0  0  0  0
   -1.4073   -1.4255   -0.0727 C   0  0  0  0  0  0  0  0  0  0  0  0
   -1.9679   -2.5913    0.4085 C   0  0  0  0  0  0  0  0  0  0  0  0
   -0.6452    1.5087    0.0467 C   0  0  0  0  0  0  0  0  0  0  0  0
    4.3696    2.4045   -0.5482 Cl  0  0  0  0  0  0  0  0  0  0  0  0
   -3.5775   -3.1112    0.2266 Cl  0  0  0  0  0  0  0  0  0  0  0  0
   -0.9012    2.7362    0.4643 N   0  0  0  0  0  0  0  0  0  0  0  0
   -1.0330   -3.3528    1.0455 N   0  0  0  0  0  0  0  0  0  0  0  0
   -2.8750    1.7586   -0.1067 N   0  0  0  0  0  0  0  0  0  0  0  0
   -0.0790   -1.4588    0.3183 N   0  0  0  0  0  0  0  0  0  0  0  0
   -1.8334    0.9292   -0.3028 N   0  0  0  0  0  0  0  0  0  0  0  0
    4.3596   -0.4192   -0.1823 H   0  0  0  0  0  0  0  0  0  0  0  0
    2.5390   -1.9964    0.1490 H   0  0  0  0  0  0  0  0  0  0  0  0
    1.5763    2.8377   -0.3592 H   0  0  0  0  0  0  0  0  0  0  0  0
   -3.0824   -0.5253   -1.0635 H   0  0  0  0  0  0  0  0  0  0  0  0
   -1.5376   -0.3314   -1.9021 H   0  0  0  0  0  0  0  0  0  0  0  0
   -2.8093    3.7287    0.6513 H   0  0  0  0  0  0  0  0  0  0  0  0
    1.0161   -2.9762    1.4174 H   0  0  0  0  0  0  0  0  0  0  0  0
  1  2  2  0
  1  7  1  0
  2  9  1  0
  3  7  2  0
  3  8  1  0
  4 10  1  0
  4 19  1  0
  5 15  1  0
  5 17  2  0
  6 16  2  0
  6 18  1  0
  7 13  1  0
  8  9  2  0
  8 12  1  0
  9 18  1  0
 10 11  2  0
 10 18  1  0
 11 14  1  0
 11 16  1  0
 12 15  2  0
 12 19  1  0
 17 19  1  0
  1 20  1  0
  2 21  1  0
  3 22  1  0
  4 23  1  0
  4 24  1  0
  5 25  1  0
  6 26  1  0
M  END
