
     RDKit          3D

 33 34  0  0  0  0  0  0  0  0999 V2000
    4.8215    0.4018   -0.7339 C   0  0  0  0  0  0  0  0  0  0  0  0
    4.5390   -0.8122   -0.1101 C   0  0  0  0  0  0  0  0  0  0  0  0
    3.7854    1.1729   -1.2576 C   0  0  0  0  0  0  0  0  0  0  0  0
    3.2197   -1.2573   -0.0113 C   0  0  0  0  0  0  0  0  0  0  0  0
    2.4659    0.7292   -1.1598 C   0  0  0  0  0  0  0  0  0  0  0  0
    0.7399   -0.9691   -0.4232 C   0  0  0  0  0  0  0  0  0  0  0  0
   -3.8264    0.6461    0.2928 C   0  0  0  0  0  0  0  0  0  0  0  0
    2.1712   -0.4919   -0.5398 C   0  0  0  0  0  0  0  0  0  0  0  0
    0.0636   -0.5202    0.8844 C   0  0  0  0  0  0  0  0  0  0  0  0
   -2.6668    0.4089    1.2562 C   0  0  0  0  0  0  0  0  0  0  0  0
   -3.4666    0.4043   -1.1458 C   0  0  0  0  0  0  0  0  0  0  0  0
   -1.1502   -1.3784    1.1663 C   0  0  0  0  0  0  0  0  0  0  0  0
   -1.4661    1.2675    0.9477 C   0  0  0  0  0  0  0  0  0  0  0  0
   -0.2449    0.9227    0.7983 N   0  0  0  0  0  0  0  0  0  0  0  0
   -2.3725   -1.0329    1.3358 N   0  0  0  0  0  0  0  0  0  0  0  0
   -2.3894    0.0750   -1.6091 O   0  0  0  0  0  0  0  0  0  0  0  0
   -4.5223    0.6052   -1.9622 O   0  0  0  0  0  0  0  0  0  0  0  0
   -0.8922   -2.6883    1.2918 O   0  0  0  0  0  0  0  0  0  0  0  0
   -1.7254    2.5789    0.8592 O   0  0  0  0  0  0  0  0  0  0  0  0
    5.8486    0.7480   -0.8099 H   0  0  0  0  0  0  0  0  0  0  0  0
    5.3461   -1.4128    0.3004 H   0  0  0  0  0  0  0  0  0  0  0  0
    4.0034    2.1214   -1.7406 H   0  0  0  0  0  0  0  0  0  0  0  0
    3.0138   -2.2058    0.4794 H   0  0  0  0  0  0  0  0  0  0  0  0
    1.6630    1.3419   -1.5641 H   0  0  0  0  0  0  0  0  0  0  0  0
    0.7419   -2.0630   -0.5128 H   0  0  0  0  0  0  0  0  0  0  0  0
    0.1708   -0.6130   -1.2913 H   0  0  0  0  0  0  0  0  0  0  0  0
   -4.6598   -0.0187    0.5488 H   0  0  0  0  0  0  0  0  0  0  0  0
   -4.1717    1.6833    0.3750 H   0  0  0  0  0  0  0  0  0  0  0  0
    0.7447   -0.6618    1.7333 H   0  0  0  0  0  0  0  0  0  0  0  0
   -2.9992    0.7104    2.2583 H   0  0  0  0  0  0  0  0  0  0  0  0
   -4.1700    0.4189   -2.8578 H   0  0  0  0  0  0  0  0  0  0  0  0
   -1.7391   -3.1288    1.4770 H   0  0  0  0  0  0  0  0  0  0  0  0
   -0.8761    3.0179    0.6745 H   0  0  0  0  0  0  0  0  0  0  0  0
  1  2  2  0
  1  3  1  0
  2  4  1  0
  3  5  2  0
  4  8  2  0
  5  8  1  0
  6  8  1  0
  6  9  1  0
  7 10  1  0
  7 11  1  0
  9 12  1  0
  9 14  1  0
 10 13  1  0
 10 15  1  0
 11 16  2  0
 11 17  1  0
 12 15  2  0
 12 18  1  0
 13 14  2  0
 13 19  1  0
  1 20  1  0
  2 21  1  0
  3 22  1  0
  4 23  1  0
  5 24  1  0
  6 25  1  0
  6 26  1  0
  7 27  1  0
  7 28  1  0
  9 29  1  0
 10 30  1  0
 17 31  1  0
 18 32  1  0
 19 33  1  0
M  END
