
     RDKit          3D

 33 34  0  0  0  0  0  0  0  0999 V2000
    3.2153   -0.8237    0.8411 C   0  0  0  0  0  0  0  0  0  0  0  0
    2.0436   -2.2556   -0.6787 C   0  0  0  0  0  0  0  0  0  0  0  0
   -3.0938    0.6803    1.5923 C   0  0  0  0  0  0  0  0  0  0  0  0
   -2.7527    1.9319    1.0690 C   0  0  0  0  0  0  0  0  0  0  0  0
    0.9660    0.4163   -1.9571 C   0  0  0  0  0  0  0  0  0  0  0  0
    2.2516    0.1241   -1.1582 C   0  0  0  0  0  0  0  0  0  0  0  0
   -1.3728   -0.3981    0.2662 C   0  0  0  0  0  0  0  0  0  0  0  0
   -0.1536    2.6471   -1.3463 C   0  0  0  0  0  0  0  0  0  0  0  0
   -0.0201    1.2767   -1.2225 C   0  0  0  0  0  0  0  0  0  0  0  0
   -2.4127   -0.4837    1.2102 C   0  0  0  0  0  0  0  0  0  0  0  0
   -1.0077    0.8511   -0.2763 C   0  0  0  0  0  0  0  0  0  0  0  0
   -1.7069    1.9832    0.1410 C   0  0  0  0  0  0  0  0  0  0  0  0
   -2.8142   -1.8196    1.7814 C   0  0  0  0  0  0  0  0  0  0  0  0
   -3.9174   -2.3339    1.1682 F   0  0  0  0  0  0  0  0  0  0  0  0
   -1.8500   -2.7766    1.6733 F   0  0  0  0  0  0  0  0  0  0  0  0
   -3.1248   -1.7576    3.1078 F   0  0  0  0  0  0  0  0  0  0  0  0
   -1.1651    3.0588   -0.5220 N   0  0  0  0  0  0  0  0  0  0  0  0
    2.1052   -0.9073   -0.1104 N   0  0  0  0  0  0  0  0  0  0  0  0
    3.2316    0.1573    1.3292 H   0  0  0  0  0  0  0  0  0  0  0  0
    4.1859   -0.9871    0.3590 H   0  0  0  0  0  0  0  0  0  0  0  0
    3.0961   -1.5649    1.6394 H   0  0  0  0  0  0  0  0  0  0  0  0
    2.9489   -2.5084   -1.2427 H   0  0  0  0  0  0  0  0  0  0  0  0
    1.1816   -2.3719   -1.3423 H   0  0  0  0  0  0  0  0  0  0  0  0
    1.9175   -2.9994    0.1164 H   0  0  0  0  0  0  0  0  0  0  0  0
   -3.9057    0.6184    2.3166 H   0  0  0  0  0  0  0  0  0  0  0  0
   -3.2834    2.8271    1.3769 H   0  0  0  0  0  0  0  0  0  0  0  0
    1.2564    0.9414   -2.8772 H   0  0  0  0  0  0  0  0  0  0  0  0
    0.4788   -0.5063   -2.2906 H   0  0  0  0  0  0  0  0  0  0  0  0
    3.0460   -0.1714   -1.8566 H   0  0  0  0  0  0  0  0  0  0  0  0
    2.5803    1.0676   -0.7015 H   0  0  0  0  0  0  0  0  0  0  0  0
   -0.8347   -1.2917   -0.0404 H   0  0  0  0  0  0  0  0  0  0  0  0
    0.3867    3.3622   -1.9521 H   0  0  0  0  0  0  0  0  0  0  0  0
   -1.4757    4.0139   -0.4132 H   0  0  0  0  0  0  0  0  0  0  0  0
  1 18  1  0
  2 18  1  0
  3  4  2  0
  3 10  1  0
  4 12  1  0
  5  6  1  0
  5  9  1  0
  6 18  1  0
  7 10  2  0
  7 11  1  0
  8  9  2  0
  8 17  1  0
  9 11  1  0
 10 13  1  0
 11 12  2  0
 12 17  1  0
 13 14  1  0
 13 15  1  0
 13 16  1  0
  1 19  1  0
  1 20  1  0
  1 21  1  0
  2 22  1  0
  2 23  1  0
  2 24  1  0
  3 25  1  0
  4 26  1  0
  5 27  1  0
  5 28  1  0
  6 29  1  0
  6 30  1  0
  7 31  1  0
  8 32  1  0
 17 33  1  0
M  END
