
     RDKit          3D

 32 33  0  0  0  0  0  0  0  0999 V2000
   -0.1940    2.4971    0.8554 C   0  0  0  0  0  0  0  0  0  0  0  0
   -3.1547   -0.2763   -0.4340 C   0  0  0  0  0  0  0  0  0  0  0  0
   -2.2622   -0.3745   -1.6680 C   0  0  0  0  0  0  0  0  0  0  0  0
    3.5315    0.1331   -0.5847 C   0  0  0  0  0  0  0  0  0  0  0  0
    2.1768    0.4608   -0.6991 C   0  0  0  0  0  0  0  0  0  0  0  0
    3.9407   -0.8283    0.3333 C   0  0  0  0  0  0  0  0  0  0  0  0
   -2.5280   -0.9416    0.7777 C   0  0  0  0  0  0  0  0  0  0  0  0
   -0.7778   -0.5610   -1.3343 C   0  0  0  0  0  0  0  0  0  0  0  0
    1.6362   -1.1371    1.0166 C   0  0  0  0  0  0  0  0  0  0  0  0
    1.1963   -0.1516    0.1121 C   0  0  0  0  0  0  0  0  0  0  0  0
    2.9916   -1.4621    1.1273 C   0  0  0  0  0  0  0  0  0  0  0  0
   -1.2086   -0.2787    1.1279 C   0  0  0  0  0  0  0  0  0  0  0  0
   -0.3034    0.1927   -0.0597 C   0  0  0  0  0  0  0  0  0  0  0  0
    3.4913   -2.6697    2.2482 Cl  0  0  0  0  0  0  0  0  0  0  0  0
   -0.5540    1.6463   -0.2744 N   0  0  0  0  0  0  0  0  0  0  0  0
   -0.8934   -0.1483    2.3155 O   0  0  0  0  0  0  0  0  0  0  0  0
   -0.3262    3.5440    0.5622 H   0  0  0  0  0  0  0  0  0  0  0  0
   -0.8490    2.3331    1.7152 H   0  0  0  0  0  0  0  0  0  0  0  0
    0.8483    2.3761    1.1635 H   0  0  0  0  0  0  0  0  0  0  0  0
   -3.3405    0.7818   -0.2098 H   0  0  0  0  0  0  0  0  0  0  0  0
   -4.1323   -0.7222   -0.6494 H   0  0  0  0  0  0  0  0  0  0  0  0
   -2.5864   -1.2176   -2.2904 H   0  0  0  0  0  0  0  0  0  0  0  0
   -2.4007    0.5239   -2.2818 H   0  0  0  0  0  0  0  0  0  0  0  0
    4.2655    0.6272   -1.2168 H   0  0  0  0  0  0  0  0  0  0  0  0
    1.8996    1.2047   -1.4421 H   0  0  0  0  0  0  0  0  0  0  0  0
    4.9933   -1.0825    0.4208 H   0  0  0  0  0  0  0  0  0  0  0  0
   -2.3476   -2.0070    0.6002 H   0  0  0  0  0  0  0  0  0  0  0  0
   -3.2026   -0.8476    1.6357 H   0  0  0  0  0  0  0  0  0  0  0  0
   -0.1876   -0.2703   -2.2141 H   0  0  0  0  0  0  0  0  0  0  0  0
   -0.5952   -1.6379   -1.2026 H   0  0  0  0  0  0  0  0  0  0  0  0
    0.9333   -1.6677    1.6546 H   0  0  0  0  0  0  0  0  0  0  0  0
   -0.0603    1.9610   -1.1050 H   0  0  0  0  0  0  0  0  0  0  0  0
  1 15  1  0
  2  3  1  0
  2  7  1  0
  3  8  1  0
  4  5  2  0
  4  6  1  0
  5 10  1  0
  6 11  2  0
  7 12  1  0
  8 13  1  0
  9 10  2  0
  9 11  1  0
 10 13  1  0
 11 14  1  0
 12 13  1  0
 12 16  2  0
 13 15  1  0
  1 17  1  0
  1 18  1  0
  1 19  1  0
  2 20  1  0
  2 21  1  0
  3 22  1  0
  3 23  1  0
  4 24  1  0
  5 25  1  0
  6 26  1  0
  7 27  1  0
  7 28  1  0
  8 29  1  0
  8 30  1  0
  9 31  1  0
 15 32  1  0
M  END
