
     RDKit          3D

 31 31  0  0  0  0  0  0  0  0999 V2000
    3.2836   -2.0789   -2.2076 C   0  0  0  0  0  0  0  0  0  0  0  0
    0.1115   -1.4581   -0.5172 C   0  0  0  0  0  0  0  0  0  0  0  0
    0.3534    0.1008   -3.2393 C   0  0  0  0  0  0  0  0  0  0  0  0
    2.8402   -0.9765   -2.0294 C   0  0  0  0  0  0  0  0  0  0  0  0
   -0.5017   -0.0381    2.6927 C   0  0  0  0  0  0  0  0  0  0  0  0
   -1.9678    1.4013    1.4116 C   0  0  0  0  0  0  0  0  0  0  0  0
   -1.4850   -0.1618    3.6752 C   0  0  0  0  0  0  0  0  0  0  0  0
   -2.9491    1.2762    2.3956 C   0  0  0  0  0  0  0  0  0  0  0  0
    2.3159    0.3823   -1.8191 C   0  0  0  0  0  0  0  0  0  0  0  0
    0.3255    0.8756    0.4784 C   0  0  0  0  0  0  0  0  0  0  0  0
    0.0325    0.0487   -0.8036 C   0  0  0  0  0  0  0  0  0  0  0  0
   -0.7352    0.7441    1.5510 C   0  0  0  0  0  0  0  0  0  0  0  0
   -2.6988    0.4959    3.5175 C   0  0  0  0  0  0  0  0  0  0  0  0
   -3.6416    0.3758    4.4615 F   0  0  0  0  0  0  0  0  0  0  0  0
    0.8601    0.5204   -1.9355 N   0  0  0  0  0  0  0  0  0  0  0  0
    3.6738   -3.0577   -2.3660 H   0  0  0  0  0  0  0  0  0  0  0  0
    1.0629   -1.7366   -0.0540 H   0  0  0  0  0  0  0  0  0  0  0  0
   -0.0229   -2.0535   -1.4253 H   0  0  0  0  0  0  0  0  0  0  0  0
   -0.6854   -1.7608    0.1709 H   0  0  0  0  0  0  0  0  0  0  0  0
    0.4213   -0.9799   -3.3989 H   0  0  0  0  0  0  0  0  0  0  0  0
   -0.6953    0.3953   -3.3582 H   0  0  0  0  0  0  0  0  0  0  0  0
    0.9032    0.5996   -4.0457 H   0  0  0  0  0  0  0  0  0  0  0  0
    0.4457   -0.5569    2.8215 H   0  0  0  0  0  0  0  0  0  0  0  0
   -2.1666    2.0155    0.5356 H   0  0  0  0  0  0  0  0  0  0  0  0
   -1.3123   -0.7653    4.5602 H   0  0  0  0  0  0  0  0  0  0  0  0
   -3.9039    1.7818    2.2946 H   0  0  0  0  0  0  0  0  0  0  0  0
    2.7793    1.0476   -2.5596 H   0  0  0  0  0  0  0  0  0  0  0  0
    2.6647    0.7648   -0.8542 H   0  0  0  0  0  0  0  0  0  0  0  0
    0.4035    1.9417    0.2236 H   0  0  0  0  0  0  0  0  0  0  0  0
    1.2994    0.5978    0.9010 H   0  0  0  0  0  0  0  0  0  0  0  0
   -1.0109    0.2588   -1.0772 H   0  0  0  0  0  0  0  0  0  0  0  0
  1  4  3  0
  2 11  1  0
  3 15  1  0
  4  9  1  0
  5  7  2  0
  5 12  1  0
  6  8  1  0
  6 12  2  0
  7 13  1  0
  8 13  2  0
  9 15  1  0
 10 11  1  0
 10 12  1  0
 11 15  1  0
 13 14  1  0
  1 16  1  0
  2 17  1  0
  2 18  1  0
  2 19  1  0
  3 20  1  0
  3 21  1  0
  3 22  1  0
  5 23  1  0
  6 24  1  0
  7 25  1  0
  8 26  1  0
  9 27  1  0
  9 28  1  0
 10 29  1  0
 10 30  1  0
 11 31  1  0
M  END
