
     RDKit          3D

 33 34  0  0  0  0  0  0  0  0999 V2000
   -0.6363   -2.9805    0.6141 C   0  0  0  0  0  0  0  0  0  0  0  0
    3.7214    1.3670    0.7210 C   0  0  0  0  0  0  0  0  0  0  0  0
    3.7591   -0.7046   -0.4798 C   0  0  0  0  0  0  0  0  0  0  0  0
   -4.1072    1.9101   -0.1970 C   0  0  0  0  0  0  0  0  0  0  0  0
   -4.0731    0.6017    0.2947 C   0  0  0  0  0  0  0  0  0  0  0  0
    0.7229   -0.3880   -0.8137 C   0  0  0  0  0  0  0  0  0  0  0  0
    1.6386    0.2569    0.2419 C   0  0  0  0  0  0  0  0  0  0  0  0
   -1.7751    1.7739   -0.8695 C   0  0  0  0  0  0  0  0  0  0  0  0
   -1.2358   -1.6604    0.2897 C   0  0  0  0  0  0  0  0  0  0  0  0
   -2.9749    2.4841   -0.7691 C   0  0  0  0  0  0  0  0  0  0  0  0
   -0.6867   -0.5410   -0.3169 C   0  0  0  0  0  0  0  0  0  0  0  0
   -1.7175    0.4524   -0.3801 C   0  0  0  0  0  0  0  0  0  0  0  0
   -2.8649   -0.0981    0.1886 C   0  0  0  0  0  0  0  0  0  0  0  0
   -3.0525    4.0996   -1.3636 Cl  0  0  0  0  0  0  0  0  0  0  0  0
   -2.5469   -1.3768    0.5803 N   0  0  0  0  0  0  0  0  0  0  0  0
    3.0064    0.5295   -0.2465 N   0  0  0  0  0  0  0  0  0  0  0  0
   -1.2783   -3.5612    1.2843 H   0  0  0  0  0  0  0  0  0  0  0  0
    0.3327   -2.8514    1.1067 H   0  0  0  0  0  0  0  0  0  0  0  0
   -0.4836   -3.5615   -0.3009 H   0  0  0  0  0  0  0  0  0  0  0  0
    4.7241    1.6114    0.3526 H   0  0  0  0  0  0  0  0  0  0  0  0
    3.2022    2.3214    0.8633 H   0  0  0  0  0  0  0  0  0  0  0  0
    3.8211    0.8781    1.6970 H   0  0  0  0  0  0  0  0  0  0  0  0
    4.7800   -0.4756   -0.8072 H   0  0  0  0  0  0  0  0  0  0  0  0
    3.3121   -1.2964   -1.2843 H   0  0  0  0  0  0  0  0  0  0  0  0
    3.8205   -1.3281    0.4195 H   0  0  0  0  0  0  0  0  0  0  0  0
   -5.0311    2.4791   -0.1287 H   0  0  0  0  0  0  0  0  0  0  0  0
   -4.9541    0.1516    0.7406 H   0  0  0  0  0  0  0  0  0  0  0  0
    1.1025   -1.3747   -1.1026 H   0  0  0  0  0  0  0  0  0  0  0  0
    0.7207    0.2224   -1.7256 H   0  0  0  0  0  0  0  0  0  0  0  0
    1.1785    1.2089    0.5404 H   0  0  0  0  0  0  0  0  0  0  0  0
    1.6680   -0.3672    1.1456 H   0  0  0  0  0  0  0  0  0  0  0  0
   -0.8980    2.2309   -1.3173 H   0  0  0  0  0  0  0  0  0  0  0  0
   -3.1949   -2.0135    1.0227 H   0  0  0  0  0  0  0  0  0  0  0  0
  1  9  1  0
  2 16  1  0
  3 16  1  0
  4  5  2  0
  4 10  1  0
  5 13  1  0
  6  7  1  0
  6 11  1  0
  7 16  1  0
  8 10  2  0
  8 12  1  0
  9 11  2  0
  9 15  1  0
 10 14  1  0
 11 12  1  0
 12 13  2  0
 13 15  1  0
  1 17  1  0
  1 18  1  0
  1 19  1  0
  2 20  1  0
  2 21  1  0
  2 22  1  0
  3 23  1  0
  3 24  1  0
  3 25  1  0
  4 26  1  0
  5 27  1  0
  6 28  1  0
  6 29  1  0
  7 30  1  0
  7 31  1  0
  8 32  1  0
 15 33  1  0
M  END
