
     RDKit          3D

 34 35  0  0  0  0  0  0  0  0999 V2000
    4.1676    1.0964    0.3511 C   0  0  0  0  0  0  0  0  0  0  0  0
    2.7682    1.6774   -1.5200 C   0  0  0  0  0  0  0  0  0  0  0  0
   -2.9478    0.3010   -2.9688 C   0  0  0  0  0  0  0  0  0  0  0  0
    1.1589    0.6483    0.9093 C   0  0  0  0  0  0  0  0  0  0  0  0
    2.0946   -0.1373   -0.0293 C   0  0  0  0  0  0  0  0  0  0  0  0
   -1.7338   -0.2210   -0.4650 C   0  0  0  0  0  0  0  0  0  0  0  0
   -3.1647   -1.8628    1.3413 C   0  0  0  0  0  0  0  0  0  0  0  0
    0.0292   -0.8269    2.6865 C   0  0  0  0  0  0  0  0  0  0  0  0
    0.0537   -0.2082    1.4516 C   0  0  0  0  0  0  0  0  0  0  0  0
   -1.1762   -0.5408    0.7959 C   0  0  0  0  0  0  0  0  0  0  0  0
   -3.6866   -1.5277    0.0908 C   0  0  0  0  0  0  0  0  0  0  0  0
   -1.9043   -1.3535    1.6650 C   0  0  0  0  0  0  0  0  0  0  0  0
   -2.9952   -0.7204   -0.8161 C   0  0  0  0  0  0  0  0  0  0  0  0
   -4.8974   -2.0100   -0.2335 F   0  0  0  0  0  0  0  0  0  0  0  0
   -1.1497   -1.5118    2.8034 N   0  0  0  0  0  0  0  0  0  0  0  0
    3.2138    0.6034   -0.6379 N   0  0  0  0  0  0  0  0  0  0  0  0
   -3.6369   -0.4823   -2.0039 O   0  0  0  0  0  0  0  0  0  0  0  0
    4.5166    0.2809    0.9942 H   0  0  0  0  0  0  0  0  0  0  0  0
    3.7483    1.8838    0.9864 H   0  0  0  0  0  0  0  0  0  0  0  0
    5.0552    1.5027   -0.1469 H   0  0  0  0  0  0  0  0  0  0  0  0
    2.2824    2.4955   -0.9775 H   0  0  0  0  0  0  0  0  0  0  0  0
    2.0689    1.2966   -2.2727 H   0  0  0  0  0  0  0  0  0  0  0  0
    3.6196    2.0960   -2.0686 H   0  0  0  0  0  0  0  0  0  0  0  0
   -3.5857    0.3783   -3.8547 H   0  0  0  0  0  0  0  0  0  0  0  0
   -2.7688    1.3158   -2.5980 H   0  0  0  0  0  0  0  0  0  0  0  0
   -2.0123   -0.1800   -3.2735 H   0  0  0  0  0  0  0  0  0  0  0  0
    1.7275    1.0632    1.7500 H   0  0  0  0  0  0  0  0  0  0  0  0
    0.7133    1.4995    0.3814 H   0  0  0  0  0  0  0  0  0  0  0  0
    2.5075   -0.9979    0.5148 H   0  0  0  0  0  0  0  0  0  0  0  0
    1.5019   -0.5825   -0.8399 H   0  0  0  0  0  0  0  0  0  0  0  0
   -1.1614    0.4094   -1.1343 H   0  0  0  0  0  0  0  0  0  0  0  0
   -3.7279   -2.4930    2.0192 H   0  0  0  0  0  0  0  0  0  0  0  0
    0.7523   -0.8371    3.4918 H   0  0  0  0  0  0  0  0  0  0  0  0
   -1.4309   -2.0553    3.6081 H   0  0  0  0  0  0  0  0  0  0  0  0
  1 16  1  0
  2 16  1  0
  3 17  1  0
  4  5  1  0
  4  9  1  0
  5 16  1  0
  6 10  2  0
  6 13  1  0
  7 11  1  0
  7 12  2  0
  8  9  2  0
  8 15  1  0
  9 10  1  0
 10 12  1  0
 11 13  2  0
 11 14  1  0
 12 15  1  0
 13 17  1  0
  1 18  1  0
  1 19  1  0
  1 20  1  0
  2 21  1  0
  2 22  1  0
  2 23  1  0
  3 24  1  0
  3 25  1  0
  3 26  1  0
  4 27  1  0
  4 28  1  0
  5 29  1  0
  5 30  1  0
  6 31  1  0
  7 32  1  0
  8 33  1  0
 15 34  1  0
M  END
