
     RDKit          3D

 31 31  0  0  0  0  0  0  0  0999 V2000
   -4.2915    1.2731    0.9233 C   0  0  0  0  0  0  0  0  0  0  0  0
   -0.6873    1.2711   -0.4954 C   0  0  0  0  0  0  0  0  0  0  0  0
   -2.3462   -0.7829   -1.7330 C   0  0  0  0  0  0  0  0  0  0  0  0
   -3.6763    0.2508    0.7817 C   0  0  0  0  0  0  0  0  0  0  0  0
    4.2484    0.6434    1.2278 C   0  0  0  0  0  0  0  0  0  0  0  0
    3.9366    0.8768   -0.1102 C   0  0  0  0  0  0  0  0  0  0  0  0
    3.3809   -0.1013    2.0245 C   0  0  0  0  0  0  0  0  0  0  0  0
    2.7561    0.3666   -0.6529 C   0  0  0  0  0  0  0  0  0  0  0  0
    2.2000   -0.6120    1.4839 C   0  0  0  0  0  0  0  0  0  0  0  0
   -2.9419   -1.0132    0.6212 C   0  0  0  0  0  0  0  0  0  0  0  0
    0.5905   -0.9285   -0.4426 C   0  0  0  0  0  0  0  0  0  0  0  0
   -0.6874   -0.1770    0.0214 C   0  0  0  0  0  0  0  0  0  0  0  0
    1.8751   -0.3813    0.1399 C   0  0  0  0  0  0  0  0  0  0  0  0
   -1.8633   -0.9838   -0.3728 N   0  0  0  0  0  0  0  0  0  0  0  0
   -4.8339    2.1817    1.0474 H   0  0  0  0  0  0  0  0  0  0  0  0
   -0.5631    1.3165   -1.5826 H   0  0  0  0  0  0  0  0  0  0  0  0
    0.1325    1.8423   -0.0469 H   0  0  0  0  0  0  0  0  0  0  0  0
   -1.6099    1.7965   -0.2361 H   0  0  0  0  0  0  0  0  0  0  0  0
   -3.0996   -1.5376   -1.9864 H   0  0  0  0  0  0  0  0  0  0  0  0
   -2.7953    0.2040   -1.8863 H   0  0  0  0  0  0  0  0  0  0  0  0
   -1.5366   -0.9065   -2.4599 H   0  0  0  0  0  0  0  0  0  0  0  0
    5.1680    1.0404    1.6491 H   0  0  0  0  0  0  0  0  0  0  0  0
    4.6133    1.4564   -0.7324 H   0  0  0  0  0  0  0  0  0  0  0  0
    3.6244   -0.2859    3.0674 H   0  0  0  0  0  0  0  0  0  0  0  0
    2.5270    0.5590   -1.6985 H   0  0  0  0  0  0  0  0  0  0  0  0
    1.5341   -1.1946    2.1167 H   0  0  0  0  0  0  0  0  0  0  0  0
   -2.5339   -1.3246    1.5910 H   0  0  0  0  0  0  0  0  0  0  0  0
   -3.6515   -1.8050    0.3489 H   0  0  0  0  0  0  0  0  0  0  0  0
    0.5248   -1.9865   -0.1519 H   0  0  0  0  0  0  0  0  0  0  0  0
    0.6566   -0.9282   -1.5385 H   0  0  0  0  0  0  0  0  0  0  0  0
   -0.6504   -0.1296    1.1181 H   0  0  0  0  0  0  0  0  0  0  0  0
  1  4  3  0
  2 12  1  0
  3 14  1  0
  4 10  1  0
  5  6  2  0
  5  7  1  0
  6  8  1  0
  7  9  2  0
  8 13  2  0
  9 13  1  0
 10 14  1  0
 11 12  1  0
 11 13  1  0
 12 14  1  0
  1 15  1  0
  2 16  1  0
  2 17  1  0
  2 18  1  0
  3 19  1  0
  3 20  1  0
  3 21  1  0
  5 22  1  0
  6 23  1  0
  7 24  1  0
  8 25  1  0
  9 26  1  0
 10 27  1  0
 10 28  1  0
 11 29  1  0
 11 30  1  0
 12 31  1  0
M  END
