
     RDKit          3D

 33 34  0  0  0  0  0  0  0  0999 V2000
    3.8120    0.8382    1.9933 C   0  0  0  0  0  0  0  0  0  0  0  0
   -3.6041    0.4050    1.9095 C   0  0  0  0  0  0  0  0  0  0  0  0
   -4.0849    1.0935   -0.3331 C   0  0  0  0  0  0  0  0  0  0  0  0
    3.9485   -0.8477    0.1315 C   0  0  0  0  0  0  0  0  0  0  0  0
    3.4053   -1.5435   -0.9541 C   0  0  0  0  0  0  0  0  0  0  0  0
   -1.1146    0.6406   -0.9516 C   0  0  0  0  0  0  0  0  0  0  0  0
   -1.9481    0.0470    0.1982 C   0  0  0  0  0  0  0  0  0  0  0  0
    1.8956    0.4081    0.4194 C   0  0  0  0  0  0  0  0  0  0  0  0
    0.0842   -1.1606   -2.3437 C   0  0  0  0  0  0  0  0  0  0  0  0
    3.2160    0.1301    0.8118 C   0  0  0  0  0  0  0  0  0  0  0  0
    0.0453   -0.2366   -1.3172 C   0  0  0  0  0  0  0  0  0  0  0  0
    1.3240   -0.2791   -0.6725 C   0  0  0  0  0  0  0  0  0  0  0  0
    2.0939   -1.2360   -1.3319 C   0  0  0  0  0  0  0  0  0  0  0  0
    1.3186   -1.7519   -2.3433 N   0  0  0  0  0  0  0  0  0  0  0  0
   -3.0300    0.9370    0.6702 N   0  0  0  0  0  0  0  0  0  0  0  0
    4.8976    0.9334    1.8852 H   0  0  0  0  0  0  0  0  0  0  0  0
    3.4057    1.8508    2.0876 H   0  0  0  0  0  0  0  0  0  0  0  0
    3.5948    0.2825    2.9107 H   0  0  0  0  0  0  0  0  0  0  0  0
   -4.0452   -0.5885    1.7680 H   0  0  0  0  0  0  0  0  0  0  0  0
   -2.8391    0.3359    2.6909 H   0  0  0  0  0  0  0  0  0  0  0  0
   -4.3803    1.0762    2.2941 H   0  0  0  0  0  0  0  0  0  0  0  0
   -4.5184    0.1321   -0.6314 H   0  0  0  0  0  0  0  0  0  0  0  0
   -3.7098    1.5996   -1.2278 H   0  0  0  0  0  0  0  0  0  0  0  0
   -4.8918    1.7267    0.0537 H   0  0  0  0  0  0  0  0  0  0  0  0
    4.9651   -1.0792    0.4439 H   0  0  0  0  0  0  0  0  0  0  0  0
    3.9861   -2.2956   -1.4776 H   0  0  0  0  0  0  0  0  0  0  0  0
   -0.7417    1.6327   -0.6675 H   0  0  0  0  0  0  0  0  0  0  0  0
   -1.7372    0.7831   -1.8426 H   0  0  0  0  0  0  0  0  0  0  0  0
   -2.3534   -0.9301   -0.0991 H   0  0  0  0  0  0  0  0  0  0  0  0
   -1.2656   -0.1454    1.0373 H   0  0  0  0  0  0  0  0  0  0  0  0
    1.3097    1.1526    0.9516 H   0  0  0  0  0  0  0  0  0  0  0  0
   -0.6616   -1.4448   -3.0740 H   0  0  0  0  0  0  0  0  0  0  0  0
    1.6235   -2.4660   -2.9895 H   0  0  0  0  0  0  0  0  0  0  0  0
  1 10  1  0
  2 15  1  0
  3 15  1  0
  4  5  2  0
  4 10  1  0
  5 13  1  0
  6  7  1  0
  6 11  1  0
  7 15  1  0
  8 10  2  0
  8 12  1  0
  9 11  2  0
  9 14  1  0
 11 12  1  0
 12 13  2  0
 13 14  1  0
  1 16  1  0
  1 17  1  0
  1 18  1  0
  2 19  1  0
  2 20  1  0
  2 21  1  0
  3 22  1  0
  3 23  1  0
  3 24  1  0
  4 25  1  0
  5 26  1  0
  6 27  1  0
  6 28  1  0
  7 29  1  0
  7 30  1  0
  8 31  1  0
  9 32  1  0
 14 33  1  0
M  END
