
     RDKit          3D

 38 38  0  0  0  0  0  0  0  0999 V2000
    3.3912    0.0306    1.7139 C   0  0  0  0  0  0  0  0  0  0  0  0
   -0.6678    3.3492   -0.8564 C   0  0  0  0  0  0  0  0  0  0  0  0
   -1.0756   -3.3104    1.5424 C   0  0  0  0  0  0  0  0  0  0  0  0
    2.7342   -0.5714   -0.6895 C   0  0  0  0  0  0  0  0  0  0  0  0
    0.6196    0.8241   -0.7745 C   0  0  0  0  0  0  0  0  0  0  0  0
    0.4886   -1.4304    0.1040 C   0  0  0  0  0  0  0  0  0  0  0  0
   -3.6049   -0.2525   -0.9266 C   0  0  0  0  0  0  0  0  0  0  0  0
    3.6914    0.2260    0.2283 C   0  0  0  0  0  0  0  0  0  0  0  0
    1.2510   -0.3856   -0.4461 C   0  0  0  0  0  0  0  0  0  0  0  0
   -0.7476    1.0019   -0.5507 C   0  0  0  0  0  0  0  0  0  0  0  0
   -0.8825   -1.2751    0.3264 C   0  0  0  0  0  0  0  0  0  0  0  0
   -5.0908   -0.0917   -0.6428 C   0  0  0  0  0  0  0  0  0  0  0  0
   -1.4953   -0.0627   -0.0263 C   0  0  0  0  0  0  0  0  0  0  0  0
   -5.4793   -0.8777    0.3918 F   0  0  0  0  0  0  0  0  0  0  0  0
   -5.3907    1.1879   -0.3092 F   0  0  0  0  0  0  0  0  0  0  0  0
    3.7149    1.6586   -0.0914 N   0  0  0  0  0  0  0  0  0  0  0  0
   -1.4340    2.1504   -0.8521 O   0  0  0  0  0  0  0  0  0  0  0  0
   -1.7030   -2.2464    0.8397 O   0  0  0  0  0  0  0  0  0  0  0  0
   -2.8378    0.1128    0.2298 O   0  0  0  0  0  0  0  0  0  0  0  0
    2.4300    0.4705    2.0009 H   0  0  0  0  0  0  0  0  0  0  0  0
    4.1659    0.4991    2.3316 H   0  0  0  0  0  0  0  0  0  0  0  0
    3.3679   -1.0348    1.9670 H   0  0  0  0  0  0  0  0  0  0  0  0
   -0.0453    3.4364    0.0409 H   0  0  0  0  0  0  0  0  0  0  0  0
   -0.0613    3.4179   -1.7650 H   0  0  0  0  0  0  0  0  0  0  0  0
   -1.3665    4.1914   -0.8600 H   0  0  0  0  0  0  0  0  0  0  0  0
   -0.3950   -2.9365    2.3149 H   0  0  0  0  0  0  0  0  0  0  0  0
   -1.8589   -3.8896    2.0408 H   0  0  0  0  0  0  0  0  0  0  0  0
   -0.5568   -3.9811    0.8501 H   0  0  0  0  0  0  0  0  0  0  0  0
    2.9438   -0.3337   -1.7414 H   0  0  0  0  0  0  0  0  0  0  0  0
    2.9790   -1.6375   -0.5873 H   0  0  0  0  0  0  0  0  0  0  0  0
    1.2179    1.6186   -1.2097 H   0  0  0  0  0  0  0  0  0  0  0  0
    0.9858   -2.3648    0.3438 H   0  0  0  0  0  0  0  0  0  0  0  0
   -3.4075   -1.2990   -1.1880 H   0  0  0  0  0  0  0  0  0  0  0  0
   -3.3356    0.3944   -1.7698 H   0  0  0  0  0  0  0  0  0  0  0  0
    4.7040   -0.1545    0.0426 H   0  0  0  0  0  0  0  0  0  0  0  0
   -5.6872   -0.3635   -1.5182 H   0  0  0  0  0  0  0  0  0  0  0  0
    4.0738    1.7916   -1.0359 H   0  0  0  0  0  0  0  0  0  0  0  0
    4.3643    2.1374    0.5323 H   0  0  0  0  0  0  0  0  0  0  0  0
  1  8  1  0
  2 17  1  0
  3 18  1  0
  4  8  1  0
  4  9  1  0
  5  9  2  0
  5 10  1  0
  6  9  1  0
  6 11  2  0
  7 12  1  0
  7 19  1  0
  8 16  1  0
 10 13  2  0
 10 17  1  0
 11 13  1  0
 11 18  1  0
 12 14  1  0
 12 15  1  0
 13 19  1  0
  1 20  1  0
  1 21  1  0
  1 22  1  0
  2 23  1  0
  2 24  1  0
  2 25  1  0
  3 26  1  0
  3 27  1  0
  3 28  1  0
  4 29  1  0
  4 30  1  0
  5 31  1  0
  6 32  1  0
  7 33  1  0
  7 34  1  0
  8 35  1  0
 12 36  1  0
 16 37  1  0
 16 38  1  0
M  END
