
     RDKit          3D

 34 35  0  0  0  0  0  0  0  0999 V2000
    5.1263   -0.0600    0.3946 C   0  0  0  0  0  0  0  0  0  0  0  0
   -1.0032   -1.9735    0.1706 C   0  0  0  0  0  0  0  0  0  0  0  0
   -3.6678   -1.0032    0.5237 C   0  0  0  0  0  0  0  0  0  0  0  0
    2.8760    0.0718    1.5140 C   0  0  0  0  0  0  0  0  0  0  0  0
    2.9939    0.3452   -0.8782 C   0  0  0  0  0  0  0  0  0  0  0  0
    1.4883    0.2293    1.4647 C   0  0  0  0  0  0  0  0  0  0  0  0
    1.6067    0.5021   -0.9283 C   0  0  0  0  0  0  0  0  0  0  0  0
   -3.2185    0.9947   -0.7353 C   0  0  0  0  0  0  0  0  0  0  0  0
   -2.0717    1.8031   -1.3460 C   0  0  0  0  0  0  0  0  0  0  0  0
    3.6408    0.1396    0.3446 C   0  0  0  0  0  0  0  0  0  0  0  0
   -1.4034   -0.6341   -0.4682 C   0  0  0  0  0  0  0  0  0  0  0  0
    0.8358    0.4446    0.2422 C   0  0  0  0  0  0  0  0  0  0  0  0
   -0.6743    0.5900    0.1931 C   0  0  0  0  0  0  0  0  0  0  0  0
   -2.8821   -0.4373   -0.5711 N   0  0  0  0  0  0  0  0  0  0  0  0
   -0.9415    1.8451   -0.4719 O   0  0  0  0  0  0  0  0  0  0  0  0
    5.3649   -1.1224    0.2847 H   0  0  0  0  0  0  0  0  0  0  0  0
    5.5371    0.2989    1.3441 H   0  0  0  0  0  0  0  0  0  0  0  0
    5.6229    0.4991   -0.4054 H   0  0  0  0  0  0  0  0  0  0  0  0
   -1.2045   -1.9873    1.2468 H   0  0  0  0  0  0  0  0  0  0  0  0
   -1.5401   -2.8064   -0.2969 H   0  0  0  0  0  0  0  0  0  0  0  0
    0.0630   -2.1769    0.0275 H   0  0  0  0  0  0  0  0  0  0  0  0
   -3.3561   -0.6142    1.4995 H   0  0  0  0  0  0  0  0  0  0  0  0
   -3.6002   -2.0954    0.5411 H   0  0  0  0  0  0  0  0  0  0  0  0
   -4.7318   -0.7747    0.3898 H   0  0  0  0  0  0  0  0  0  0  0  0
    3.3569   -0.1005    2.4742 H   0  0  0  0  0  0  0  0  0  0  0  0
    3.5661    0.3913   -1.8019 H   0  0  0  0  0  0  0  0  0  0  0  0
    0.9202    0.1799    2.3908 H   0  0  0  0  0  0  0  0  0  0  0  0
    1.1267    0.6788   -1.8884 H   0  0  0  0  0  0  0  0  0  0  0  0
   -4.1086    1.0773   -1.3684 H   0  0  0  0  0  0  0  0  0  0  0  0
   -3.4553    1.4428    0.2393 H   0  0  0  0  0  0  0  0  0  0  0  0
   -2.3915    2.8366   -1.5140 H   0  0  0  0  0  0  0  0  0  0  0  0
   -1.7615    1.3999   -2.3171 H   0  0  0  0  0  0  0  0  0  0  0  0
   -1.0605   -0.6931   -1.5111 H   0  0  0  0  0  0  0  0  0  0  0  0
   -1.0528    0.7088    1.2170 H   0  0  0  0  0  0  0  0  0  0  0  0
  1 10  1  0
  2 11  1  0
  3 14  1  0
  4  6  2  0
  4 10  1  0
  5  7  1  0
  5 10  2  0
  6 12  1  0
  7 12  2  0
  8  9  1  0
  8 14  1  0
  9 15  1  0
 11 13  1  0
 11 14  1  0
 12 13  1  0
 13 15  1  0
  1 16  1  0
  1 17  1  0
  1 18  1  0
  2 19  1  0
  2 20  1  0
  2 21  1  0
  3 22  1  0
  3 23  1  0
  3 24  1  0
  4 25  1  0
  5 26  1  0
  6 27  1  0
  7 28  1  0
  8 29  1  0
  8 30  1  0
  9 31  1  0
  9 32  1  0
 11 33  1  0
 13 34  1  0
M  END
