
     RDKit          3D

 39 39  0  0  0  0  0  0  0  0999 V2000
   -4.9709    0.4756    2.0350 C   0  0  0  0  0  0  0  0  0  0  0  0
    1.5340    2.5479    1.9371 C   0  0  0  0  0  0  0  0  0  0  0  0
   -0.2509   -2.8480   -2.7939 C   0  0  0  0  0  0  0  0  0  0  0  0
    3.1637    0.7967   -1.5295 C   0  0  0  0  0  0  0  0  0  0  0  0
    4.3562    0.1571   -0.8109 C   0  0  0  0  0  0  0  0  0  0  0  0
   -4.7711   -0.6867   -0.0433 C   0  0  0  0  0  0  0  0  0  0  0  0
   -3.3087   -0.4667   -0.4391 C   0  0  0  0  0  0  0  0  0  0  0  0
    1.1429   -0.7055   -1.5931 C   0  0  0  0  0  0  0  0  0  0  0  0
    0.1052    0.4296    0.7291 C   0  0  0  0  0  0  0  0  0  0  0  0
    1.8424    0.3334   -0.9500 C   0  0  0  0  0  0  0  0  0  0  0  0
    1.3197    0.8997    0.2243 C   0  0  0  0  0  0  0  0  0  0  0  0
   -0.0739   -1.1779   -1.0916 C   0  0  0  0  0  0  0  0  0  0  0  0
   -0.5993   -0.5941    0.0749 C   0  0  0  0  0  0  0  0  0  0  0  0
    5.6223    0.5783   -1.4124 N   0  0  0  0  0  0  0  0  0  0  0  0
   -5.3433    0.4166    0.6661 O   0  0  0  0  0  0  0  0  0  0  0  0
    2.0726    1.8916    0.7961 O   0  0  0  0  0  0  0  0  0  0  0  0
   -0.8052   -2.1872   -1.6642 O   0  0  0  0  0  0  0  0  0  0  0  0
   -2.1481   -1.1212    0.8184 S   0  0  0  0  0  0  0  0  0  0  0  0
   -5.1037   -0.4937    2.5254 H   0  0  0  0  0  0  0  0  0  0  0  0
   -3.9405    0.8238    2.1381 H   0  0  0  0  0  0  0  0  0  0  0  0
   -5.6189    1.2038    2.5312 H   0  0  0  0  0  0  0  0  0  0  0  0
    1.4324    1.8539    2.7779 H   0  0  0  0  0  0  0  0  0  0  0  0
    0.5797    3.0305    1.7021 H   0  0  0  0  0  0  0  0  0  0  0  0
    2.2381    3.3307    2.2351 H   0  0  0  0  0  0  0  0  0  0  0  0
   -0.9432   -3.6426   -3.0883 H   0  0  0  0  0  0  0  0  0  0  0  0
    0.7080   -3.3169   -2.5494 H   0  0  0  0  0  0  0  0  0  0  0  0
   -0.1532   -2.1621   -3.6417 H   0  0  0  0  0  0  0  0  0  0  0  0
    3.1986    0.5504   -2.5994 H   0  0  0  0  0  0  0  0  0  0  0  0
    3.2223    1.8919   -1.4815 H   0  0  0  0  0  0  0  0  0  0  0  0
    4.3590    0.4251    0.2516 H   0  0  0  0  0  0  0  0  0  0  0  0
    4.2877   -0.9355   -0.8683 H   0  0  0  0  0  0  0  0  0  0  0  0
   -4.9405   -1.6278    0.4938 H   0  0  0  0  0  0  0  0  0  0  0  0
   -5.3531   -0.7546   -0.9701 H   0  0  0  0  0  0  0  0  0  0  0  0
   -3.1171   -0.9976   -1.3761 H   0  0  0  0  0  0  0  0  0  0  0  0
   -3.1094    0.5994   -0.5890 H   0  0  0  0  0  0  0  0  0  0  0  0
    1.5785   -1.1292   -2.4935 H   0  0  0  0  0  0  0  0  0  0  0  0
   -0.3193    0.8442    1.6378 H   0  0  0  0  0  0  0  0  0  0  0  0
    5.7150    1.5899   -1.3201 H   0  0  0  0  0  0  0  0  0  0  0  0
    6.3918    0.1774   -0.8768 H   0  0  0  0  0  0  0  0  0  0  0  0
  1 15  1  0
  2 16  1  0
  3 17  1  0
  4  5  1  0
  4 10  1  0
  5 14  1  0
  6  7  1  0
  6 15  1  0
  7 18  1  0
  8 10  2  0
  8 12  1  0
  9 11  2  0
  9 13  1  0
 10 11  1  0
 11 16  1  0
 12 13  2  0
 12 17  1  0
 13 18  1  0
  1 19  1  0
  1 20  1  0
  1 21  1  0
  2 22  1  0
  2 23  1  0
  2 24  1  0
  3 25  1  0
  3 26  1  0
  3 27  1  0
  4 28  1  0
  4 29  1  0
  5 30  1  0
  5 31  1  0
  6 32  1  0
  6 33  1  0
  7 34  1  0
  7 35  1  0
  8 36  1  0
  9 37  1  0
 14 38  1  0
 14 39  1  0
M  END
