
     RDKit          3D

 37 37  0  0  0  0  0  0  0  0999 V2000
   -4.1019    0.6364   -1.8028 C   0  0  0  0  0  0  0  0  0  0  0  0
    2.5973   -1.3402    1.5982 C   0  0  0  0  0  0  0  0  0  0  0  0
   -1.8428   -3.2804   -0.7632 C   0  0  0  0  0  0  0  0  0  0  0  0
    0.8677    3.4100    1.1849 C   0  0  0  0  0  0  0  0  0  0  0  0
   -3.4859    0.5864   -0.4124 C   0  0  0  0  0  0  0  0  0  0  0  0
    2.3026   -0.2425   -0.6906 C   0  0  0  0  0  0  0  0  0  0  0  0
   -0.0615   -1.0870   -0.6457 C   0  0  0  0  0  0  0  0  0  0  0  0
   -1.1295    1.4642   -0.4383 C   0  0  0  0  0  0  0  0  0  0  0  0
    3.0281   -0.2025    0.6716 C   0  0  0  0  0  0  0  0  0  0  0  0
   -1.9927    0.3555   -0.4643 C   0  0  0  0  0  0  0  0  0  0  0  0
    0.8102    0.0227   -0.6091 C   0  0  0  0  0  0  0  0  0  0  0  0
   -1.4498   -0.9332   -0.5738 C   0  0  0  0  0  0  0  0  0  0  0  0
    0.2637    1.3129   -0.4935 C   0  0  0  0  0  0  0  0  0  0  0  0
    4.4790   -0.3064    0.4588 N   0  0  0  0  0  0  0  0  0  0  0  0
   -2.3525   -1.9631   -0.6039 O   0  0  0  0  0  0  0  0  0  0  0  0
    1.2780    2.7907   -0.4689 S   0  0  0  0  0  0  0  0  0  0  0  0
   -3.6619    1.4408   -2.4021 H   0  0  0  0  0  0  0  0  0  0  0  0
   -3.9507   -0.3046   -2.3420 H   0  0  0  0  0  0  0  0  0  0  0  0
   -5.1793    0.8164   -1.7324 H   0  0  0  0  0  0  0  0  0  0  0  0
    3.1691   -1.3232    2.5332 H   0  0  0  0  0  0  0  0  0  0  0  0
    2.7474   -2.3193    1.1297 H   0  0  0  0  0  0  0  0  0  0  0  0
    1.5405   -1.2507    1.8688 H   0  0  0  0  0  0  0  0  0  0  0  0
   -2.6945   -3.9670   -0.7874 H   0  0  0  0  0  0  0  0  0  0  0  0
   -1.3052   -3.3848   -1.7114 H   0  0  0  0  0  0  0  0  0  0  0  0
   -1.2116   -3.5643    0.0852 H   0  0  0  0  0  0  0  0  0  0  0  0
    1.0566    2.6421    1.9401 H   0  0  0  0  0  0  0  0  0  0  0  0
    1.4964    4.2766    1.4067 H   0  0  0  0  0  0  0  0  0  0  0  0
   -0.1785    3.7221    1.2372 H   0  0  0  0  0  0  0  0  0  0  0  0
   -3.6955    1.5272    0.1118 H   0  0  0  0  0  0  0  0  0  0  0  0
   -3.9685   -0.1954    0.1861 H   0  0  0  0  0  0  0  0  0  0  0  0
    2.7499    0.4821   -1.3836 H   0  0  0  0  0  0  0  0  0  0  0  0
    2.4736   -1.2172   -1.1692 H   0  0  0  0  0  0  0  0  0  0  0  0
    0.3801   -2.0758   -0.7314 H   0  0  0  0  0  0  0  0  0  0  0  0
   -1.5609    2.4624   -0.3878 H   0  0  0  0  0  0  0  0  0  0  0  0
    2.8304    0.7473    1.1798 H   0  0  0  0  0  0  0  0  0  0  0  0
    4.7921    0.4845   -0.1048 H   0  0  0  0  0  0  0  0  0  0  0  0
    4.9605   -0.2224    1.3535 H   0  0  0  0  0  0  0  0  0  0  0  0
  1  5  1  0
  2  9  1  0
  3 15  1  0
  4 16  1  0
  5 10  1  0
  6  9  1  0
  6 11  1  0
  7 11  2  0
  7 12  1  0
  8 10  1  0
  8 13  2  0
  9 14  1  0
 10 12  2  0
 11 13  1  0
 12 15  1  0
 13 16  1  0
  1 17  1  0
  1 18  1  0
  1 19  1  0
  2 20  1  0
  2 21  1  0
  2 22  1  0
  3 23  1  0
  3 24  1  0
  3 25  1  0
  4 26  1  0
  4 27  1  0
  4 28  1  0
  5 29  1  0
  5 30  1  0
  6 31  1  0
  6 32  1  0
  7 33  1  0
  8 34  1  0
  9 35  1  0
 14 36  1  0
 14 37  1  0
M  END
