
     RDKit          3D

 29 30  0  0  0  0  0  0  0  0999 V2000
    5.5347   -0.9968   -1.2710 C   0  0  0  0  0  0  0  0  0  0  0  0
   -5.0946   -0.1695    2.1984 C   0  0  0  0  0  0  0  0  0  0  0  0
   -4.7588    1.1017    1.7383 C   0  0  0  0  0  0  0  0  0  0  0  0
   -4.2265   -1.2383    1.9810 C   0  0  0  0  0  0  0  0  0  0  0  0
   -3.5516    1.3053    1.0559 C   0  0  0  0  0  0  0  0  0  0  0  0
   -3.0193   -1.0349    1.3068 C   0  0  0  0  0  0  0  0  0  0  0  0
   -1.4244    0.4904    0.0970 C   0  0  0  0  0  0  0  0  0  0  0  0
   -0.2403   -0.0744    0.3917 C   0  0  0  0  0  0  0  0  0  0  0  0
    2.1505   -0.4360   -0.0121 C   0  0  0  0  0  0  0  0  0  0  0  0
    3.2443    0.5969   -1.8935 C   0  0  0  0  0  0  0  0  0  0  0  0
   -2.6646    0.2421    0.8452 C   0  0  0  0  0  0  0  0  0  0  0  0
    0.9881    0.1374   -0.3480 C   0  0  0  0  0  0  0  0  0  0  0  0
    3.3141   -0.2267   -0.8352 C   0  0  0  0  0  0  0  0  0  0  0  0
    1.9870    1.2900   -2.2204 C   0  0  0  0  0  0  0  0  0  0  0  0
    1.9545    2.0968   -3.1407 O   0  0  0  0  0  0  0  0  0  0  0  0
    4.4025   -0.9473   -0.4105 O   0  0  0  0  0  0  0  0  0  0  0  0
    0.8867    0.9897   -1.4796 O   0  0  0  0  0  0  0  0  0  0  0  0
    5.2626   -1.4948   -2.2136 H   0  0  0  0  0  0  0  0  0  0  0  0
    6.3030   -1.5989   -0.7797 H   0  0  0  0  0  0  0  0  0  0  0  0
    5.9522    0.0006   -1.4557 H   0  0  0  0  0  0  0  0  0  0  0  0
   -6.0309   -0.3273    2.7203 H   0  0  0  0  0  0  0  0  0  0  0  0
   -5.4350    1.9352    1.9036 H   0  0  0  0  0  0  0  0  0  0  0  0
   -4.4910   -2.2301    2.3362 H   0  0  0  0  0  0  0  0  0  0  0  0
   -3.3064    2.3043    0.6962 H   0  0  0  0  0  0  0  0  0  0  0  0
   -2.3670   -1.8873    1.1309 H   0  0  0  0  0  0  0  0  0  0  0  0
   -1.5191    1.1828   -0.7352 H   0  0  0  0  0  0  0  0  0  0  0  0
   -0.1682   -0.7435    1.2445 H   0  0  0  0  0  0  0  0  0  0  0  0
    2.2435   -1.0840    0.8568 H   0  0  0  0  0  0  0  0  0  0  0  0
    4.0742    0.8165   -2.5506 H   0  0  0  0  0  0  0  0  0  0  0  0
  1 16  1  0
  2  3  2  0
  2  4  1  0
  3  5  1  0
  4  6  2  0
  5 11  2  0
  6 11  1  0
  7  8  2  3
  7 11  1  0
  8 12  1  0
  9 12  2  0
  9 13  1  0
 10 13  2  0
 10 14  1  0
 12 17  1  0
 13 16  1  0
 14 15  2  0
 14 17  1  0
  1 18  1  0
  1 19  1  0
  1 20  1  0
  2 21  1  0
  3 22  1  0
  4 23  1  0
  5 24  1  0
  6 25  1  0
  7 26  1  0
  8 27  1  0
  9 28  1  0
 10 29  1  0
M  END
