
     RDKit          3D

 34 36  0  0  0  0  0  0  0  0999 V2000
   -0.5293    2.7639   -0.4065 C   0  0  0  0  0  0  0  0  0  0  0  0
    3.9305   -1.0820    1.2909 C   0  0  0  0  0  0  0  0  0  0  0  0
   -4.3575    0.1498    0.5106 C   0  0  0  0  0  0  0  0  0  0  0  0
   -3.3566    0.5173    1.4048 C   0  0  0  0  0  0  0  0  0  0  0  0
   -4.0165   -0.4361   -0.7049 C   0  0  0  0  0  0  0  0  0  0  0  0
   -2.0134    0.3075    1.0776 C   0  0  0  0  0  0  0  0  0  0  0  0
   -2.6731   -0.6474   -1.0306 C   0  0  0  0  0  0  0  0  0  0  0  0
    1.5272   -1.8021   -1.5420 C   0  0  0  0  0  0  0  0  0  0  0  0
    0.5385    1.8205    0.0127 C   0  0  0  0  0  0  0  0  0  0  0  0
   -1.6466   -0.2647   -0.1535 C   0  0  0  0  0  0  0  0  0  0  0  0
    2.4796   -2.0531   -0.4119 C   0  0  0  0  0  0  0  0  0  0  0  0
    0.1052   -1.7075   -1.0851 C   0  0  0  0  0  0  0  0  0  0  0  0
    0.6920    0.4413   -0.0638 C   0  0  0  0  0  0  0  0  0  0  0  0
    2.0456    0.2149    0.3714 C   0  0  0  0  0  0  0  0  0  0  0  0
    1.6857    2.2907    0.5818 N   0  0  0  0  0  0  0  0  0  0  0  0
    2.5933    1.3465    0.8309 N   0  0  0  0  0  0  0  0  0  0  0  0
    2.7598   -0.9852    0.4270 N   0  0  0  0  0  0  0  0  0  0  0  0
   -0.2691   -0.4958   -0.4940 N   0  0  0  0  0  0  0  0  0  0  0  0
    3.0437   -3.1460   -0.3176 O   0  0  0  0  0  0  0  0  0  0  0  0
   -0.6537   -2.6598   -1.2834 O   0  0  0  0  0  0  0  0  0  0  0  0
   -1.1389    2.3468   -1.2133 H   0  0  0  0  0  0  0  0  0  0  0  0
   -1.1796    3.0144    0.4368 H   0  0  0  0  0  0  0  0  0  0  0  0
   -0.0953    3.6972   -0.7823 H   0  0  0  0  0  0  0  0  0  0  0  0
    4.2642   -2.1165    1.4102 H   0  0  0  0  0  0  0  0  0  0  0  0
    3.6912   -0.6860    2.2832 H   0  0  0  0  0  0  0  0  0  0  0  0
    4.7473   -0.5050    0.8455 H   0  0  0  0  0  0  0  0  0  0  0  0
   -5.4024    0.3054    0.7660 H   0  0  0  0  0  0  0  0  0  0  0  0
   -3.6192    0.9542    2.3649 H   0  0  0  0  0  0  0  0  0  0  0  0
   -4.7945   -0.7389   -1.4013 H   0  0  0  0  0  0  0  0  0  0  0  0
   -1.2599    0.5682    1.8168 H   0  0  0  0  0  0  0  0  0  0  0  0
   -2.4431   -1.1056   -1.9899 H   0  0  0  0  0  0  0  0  0  0  0  0
    1.8215   -0.9175   -2.1174 H   0  0  0  0  0  0  0  0  0  0  0  0
    1.6030   -2.6408   -2.2461 H   0  0  0  0  0  0  0  0  0  0  0  0
    1.9203    3.2515    0.8125 H   0  0  0  0  0  0  0  0  0  0  0  0
  1  9  1  0
  2 17  1  0
  3  4  2  0
  3  5  1  0
  4  6  1  0
  5  7  2  0
  6 10  2  0
  7 10  1  0
  8 11  1  0
  8 12  1  0
  9 13  2  0
  9 15  1  0
 10 18  1  0
 11 17  1  0
 11 19  2  0
 12 18  1  0
 12 20  2  0
 13 14  1  0
 13 18  1  0
 14 16  2  0
 14 17  1  0
 15 16  1  0
  1 21  1  0
  1 22  1  0
  1 23  1  0
  2 24  1  0
  2 25  1  0
  2 26  1  0
  3 27  1  0
  4 28  1  0
  5 29  1  0
  6 30  1  0
  7 31  1  0
  8 32  1  0
  8 33  1  0
 15 34  1  0
M  END
