
     RDKit          3D

 35 36  0  0  0  0  0  0  0  0999 V2000
    0.9800    3.1347    0.4274 C   0  0  0  0  0  0  0  0  0  0  0  0
   -2.5944   -1.4637    1.3633 C   0  0  0  0  0  0  0  0  0  0  0  0
   -3.3364   -1.6440    0.2114 C   0  0  0  0  0  0  0  0  0  0  0  0
    1.8228   -1.7739    0.0960 C   0  0  0  0  0  0  0  0  0  0  0  0
    1.8231   -1.0826    1.4552 C   0  0  0  0  0  0  0  0  0  0  0  0
   -1.4197   -0.7096    1.3232 C   0  0  0  0  0  0  0  0  0  0  0  0
   -2.9142   -1.0439   -0.9696 C   0  0  0  0  0  0  0  0  0  0  0  0
    2.1719   -0.8208   -1.0316 C   0  0  0  0  0  0  0  0  0  0  0  0
    1.3209    0.3700    1.4096 C   0  0  0  0  0  0  0  0  0  0  0  0
   -0.9225   -0.1275    0.1281 C   0  0  0  0  0  0  0  0  0  0  0  0
   -1.7330   -0.2608   -1.0371 C   0  0  0  0  0  0  0  0  0  0  0  0
    1.3391    0.4522   -1.0304 C   0  0  0  0  0  0  0  0  0  0  0  0
    0.3967    0.7028    0.1928 C   0  0  0  0  0  0  0  0  0  0  0  0
   -1.4381    0.3721   -2.3910 C   0  0  0  0  0  0  0  0  0  0  0  0
   -0.4212   -0.2633   -3.0347 F   0  0  0  0  0  0  0  0  0  0  0  0
   -1.1486    1.6943   -2.3497 F   0  0  0  0  0  0  0  0  0  0  0  0
   -2.4990    0.2799   -3.2535 F   0  0  0  0  0  0  0  0  0  0  0  0
   -0.0477    2.1191    0.2614 N   0  0  0  0  0  0  0  0  0  0  0  0
    1.4873    1.2463   -1.9637 O   0  0  0  0  0  0  0  0  0  0  0  0
    1.7849    3.0598   -0.3075 H   0  0  0  0  0  0  0  0  0  0  0  0
    1.4120    3.1129    1.4325 H   0  0  0  0  0  0  0  0  0  0  0  0
    0.5235    4.1216    0.2983 H   0  0  0  0  0  0  0  0  0  0  0  0
   -2.9283   -1.9021    2.3006 H   0  0  0  0  0  0  0  0  0  0  0  0
   -4.2517   -2.2298    0.2318 H   0  0  0  0  0  0  0  0  0  0  0  0
    2.5294   -2.6119    0.1101 H   0  0  0  0  0  0  0  0  0  0  0  0
    0.8387   -2.2181   -0.0919 H   0  0  0  0  0  0  0  0  0  0  0  0
    2.8414   -1.0836    1.8646 H   0  0  0  0  0  0  0  0  0  0  0  0
    1.2239   -1.6736    2.1572 H   0  0  0  0  0  0  0  0  0  0  0  0
   -0.9039   -0.5838    2.2716 H   0  0  0  0  0  0  0  0  0  0  0  0
   -3.5321   -1.1781   -1.8587 H   0  0  0  0  0  0  0  0  0  0  0  0
    2.0306   -1.3229   -1.9945 H   0  0  0  0  0  0  0  0  0  0  0  0
    3.2232   -0.5224   -0.9466 H   0  0  0  0  0  0  0  0  0  0  0  0
    2.2241    0.9953    1.3545 H   0  0  0  0  0  0  0  0  0  0  0  0
    0.8554    0.6320    2.3677 H   0  0  0  0  0  0  0  0  0  0  0  0
   -0.7382    2.2235    1.0031 H   0  0  0  0  0  0  0  0  0  0  0  0
  1 18  1  0
  2  3  2  0
  2  6  1  0
  3  7  1  0
  4  5  1  0
  4  8  1  0
  5  9  1  0
  6 10  2  0
  7 11  2  0
  8 12  1  0
  9 13  1  0
 10 11  1  0
 10 13  1  0
 11 14  1  0
 12 13  1  0
 12 19  2  0
 13 18  1  0
 14 15  1  0
 14 16  1  0
 14 17  1  0
  1 20  1  0
  1 21  1  0
  1 22  1  0
  2 23  1  0
  3 24  1  0
  4 25  1  0
  4 26  1  0
  5 27  1  0
  5 28  1  0
  6 29  1  0
  7 30  1  0
  8 31  1  0
  8 32  1  0
  9 33  1  0
  9 34  1  0
 18 35  1  0
M  END
