
     RDKit          3D

 36 38  0  0  0  0  0  0  0  0999 V2000
    2.9118   -0.9346    1.0048 C   0  0  0  0  0  0  0  0  0  0  0  0
    0.1758    2.6716   -0.4378 C   0  0  0  0  0  0  0  0  0  0  0  0
   -2.0749   -2.4880    0.3359 C   0  0  0  0  0  0  0  0  0  0  0  0
   -1.1661    3.3911   -0.3407 C   0  0  0  0  0  0  0  0  0  0  0  0
   -0.9845   -3.2025   -0.4573 C   0  0  0  0  0  0  0  0  0  0  0  0
    1.8109    0.0549   -1.0804 C   0  0  0  0  0  0  0  0  0  0  0  0
    2.8527    0.2513    0.0404 C   0  0  0  0  0  0  0  0  0  0  0  0
   -0.2971    1.2673   -0.3425 C   0  0  0  0  0  0  0  0  0  0  0  0
   -1.6472   -1.0804    0.1325 C   0  0  0  0  0  0  0  0  0  0  0  0
    0.3866    0.0825   -0.5961 C   0  0  0  0  0  0  0  0  0  0  0  0
   -2.3202    0.1066    0.4178 C   0  0  0  0  0  0  0  0  0  0  0  0
   -0.3347   -1.0808   -0.3562 C   0  0  0  0  0  0  0  0  0  0  0  0
   -1.6106    1.2679    0.1440 C   0  0  0  0  0  0  0  0  0  0  0  0
   -3.7121    0.1719    0.9664 C   0  0  0  0  0  0  0  0  0  0  0  0
   -4.2093   -1.0458    1.3349 F   0  0  0  0  0  0  0  0  0  0  0  0
   -4.6111    0.6670    0.0697 F   0  0  0  0  0  0  0  0  0  0  0  0
   -3.8202    0.9468    2.0822 F   0  0  0  0  0  0  0  0  0  0  0  0
    4.1817    0.4522   -0.5574 N   0  0  0  0  0  0  0  0  0  0  0  0
    0.1742   -2.3457   -0.5354 O   0  0  0  0  0  0  0  0  0  0  0  0
   -2.1062    2.5341    0.3451 O   0  0  0  0  0  0  0  0  0  0  0  0
    3.1175   -1.8724    0.4768 H   0  0  0  0  0  0  0  0  0  0  0  0
    1.9689   -1.0494    1.5485 H   0  0  0  0  0  0  0  0  0  0  0  0
    3.6980   -0.7912    1.7548 H   0  0  0  0  0  0  0  0  0  0  0  0
    0.6925    2.9083   -1.3710 H   0  0  0  0  0  0  0  0  0  0  0  0
    0.8134    2.9136    0.4183 H   0  0  0  0  0  0  0  0  0  0  0  0
   -2.0243   -2.7472    1.3983 H   0  0  0  0  0  0  0  0  0  0  0  0
   -3.0672   -2.7147   -0.0618 H   0  0  0  0  0  0  0  0  0  0  0  0
   -1.5743    3.6062   -1.3367 H   0  0  0  0  0  0  0  0  0  0  0  0
   -1.0777    4.3390    0.2000 H   0  0  0  0  0  0  0  0  0  0  0  0
   -1.3146   -3.4143   -1.4824 H   0  0  0  0  0  0  0  0  0  0  0  0
   -0.7035   -4.1524    0.0092 H   0  0  0  0  0  0  0  0  0  0  0  0
    2.0067   -0.8818   -1.6191 H   0  0  0  0  0  0  0  0  0  0  0  0
    1.9267    0.8438   -1.8362 H   0  0  0  0  0  0  0  0  0  0  0  0
    2.6119    1.1532    0.6144 H   0  0  0  0  0  0  0  0  0  0  0  0
    4.4537   -0.3886   -1.0676 H   0  0  0  0  0  0  0  0  0  0  0  0
    4.8730    0.5605    0.1847 H   0  0  0  0  0  0  0  0  0  0  0  0
  1  7  1  0
  2  4  1  0
  2  8  1  0
  3  5  1  0
  3  9  1  0
  4 20  1  0
  5 19  1  0
  6  7  1  0
  6 10  1  0
  7 18  1  0
  8 10  1  0
  8 13  2  0
  9 11  2  0
  9 12  1  0
 10 12  2  0
 11 13  1  0
 11 14  1  0
 12 19  1  0
 13 20  1  0
 14 15  1  0
 14 16  1  0
 14 17  1  0
  1 21  1  0
  1 22  1  0
  1 23  1  0
  2 24  1  0
  2 25  1  0
  3 26  1  0
  3 27  1  0
  4 28  1  0
  4 29  1  0
  5 30  1  0
  5 31  1  0
  6 32  1  0
  6 33  1  0
  7 34  1  0
 18 35  1  0
 18 36  1  0
M  END
