
     RDKit          3D

 34 35  0  0  0  0  0  0  0  0999 V2000
    1.9759    3.4392    0.4978 C   0  0  0  0  0  0  0  0  0  0  0  0
   -1.6194   -2.3476   -1.1297 C   0  0  0  0  0  0  0  0  0  0  0  0
    3.7879   -1.7964   -0.2480 C   0  0  0  0  0  0  0  0  0  0  0  0
    2.8935   -2.8554   -0.2389 C   0  0  0  0  0  0  0  0  0  0  0  0
    3.3193   -0.4951   -0.0649 C   0  0  0  0  0  0  0  0  0  0  0  0
    1.5325   -2.6076   -0.0602 C   0  0  0  0  0  0  0  0  0  0  0  0
   -2.2779    0.5639    0.8017 C   0  0  0  0  0  0  0  0  0  0  0  0
   -2.9957    1.1103   -0.4378 C   0  0  0  0  0  0  0  0  0  0  0  0
    0.1043    1.3299    0.5573 C   0  0  0  0  0  0  0  0  0  0  0  0
   -0.8171    0.2738    0.5391 C   0  0  0  0  0  0  0  0  0  0  0  0
    1.9464   -0.2155    0.1248 C   0  0  0  0  0  0  0  0  0  0  0  0
    1.0299   -1.2965    0.1068 C   0  0  0  0  0  0  0  0  0  0  0  0
    1.4679    1.1024    0.3395 C   0  0  0  0  0  0  0  0  0  0  0  0
   -0.3493   -1.0219    0.2705 C   0  0  0  0  0  0  0  0  0  0  0  0
   -4.4077    1.3891   -0.1752 N   0  0  0  0  0  0  0  0  0  0  0  0
    2.4177    2.0981    0.3366 O   0  0  0  0  0  0  0  0  0  0  0  0
   -1.2726   -2.0431    0.2244 O   0  0  0  0  0  0  0  0  0  0  0  0
    1.2882    3.7291   -0.3034 H   0  0  0  0  0  0  0  0  0  0  0  0
    2.8535    4.0896    0.4329 H   0  0  0  0  0  0  0  0  0  0  0  0
    1.5245    3.5891    1.4839 H   0  0  0  0  0  0  0  0  0  0  0  0
   -1.5445   -1.4832   -1.7994 H   0  0  0  0  0  0  0  0  0  0  0  0
   -2.6569   -2.6952   -1.1382 H   0  0  0  0  0  0  0  0  0  0  0  0
   -0.9882   -3.1587   -1.5044 H   0  0  0  0  0  0  0  0  0  0  0  0
    4.8505   -1.9766   -0.3856 H   0  0  0  0  0  0  0  0  0  0  0  0
    3.2496   -3.8741   -0.3648 H   0  0  0  0  0  0  0  0  0  0  0  0
    4.0444    0.3173   -0.0619 H   0  0  0  0  0  0  0  0  0  0  0  0
    0.8552   -3.4585   -0.0357 H   0  0  0  0  0  0  0  0  0  0  0  0
   -2.3482    1.2885    1.6243 H   0  0  0  0  0  0  0  0  0  0  0  0
   -2.7863   -0.3367    1.1671 H   0  0  0  0  0  0  0  0  0  0  0  0
   -2.5167    2.0348   -0.7799 H   0  0  0  0  0  0  0  0  0  0  0  0
   -2.9305    0.3973   -1.2659 H   0  0  0  0  0  0  0  0  0  0  0  0
   -0.2709    2.3297    0.7526 H   0  0  0  0  0  0  0  0  0  0  0  0
   -4.4893    2.0458    0.6003 H   0  0  0  0  0  0  0  0  0  0  0  0
   -4.8700    0.5341    0.1344 H   0  0  0  0  0  0  0  0  0  0  0  0
  1 16  1  0
  2 17  1  0
  3  4  2  0
  3  5  1  0
  4  6  1  0
  5 11  2  0
  6 12  2  0
  7  8  1  0
  7 10  1  0
  8 15  1  0
  9 10  1  0
  9 13  2  0
 10 14  2  0
 11 12  1  0
 11 13  1  0
 12 14  1  0
 13 16  1  0
 14 17  1  0
  1 18  1  0
  1 19  1  0
  1 20  1  0
  2 21  1  0
  2 22  1  0
  2 23  1  0
  3 24  1  0
  4 25  1  0
  5 26  1  0
  6 27  1  0
  7 28  1  0
  7 29  1  0
  8 30  1  0
  8 31  1  0
  9 32  1  0
 15 33  1  0
 15 34  1  0
M  END
