
     RDKit          3D

 36 37  0  0  0  0  0  0  0  0999 V2000
   -1.9027   -3.0143   -2.3419 C   0  0  0  0  0  0  0  0  0  0  0  0
    3.4619   -0.5505   -0.2825 C   0  0  0  0  0  0  0  0  0  0  0  0
    3.7323    0.2828    0.9639 C   0  0  0  0  0  0  0  0  0  0  0  0
    2.0340   -1.0931   -0.2748 C   0  0  0  0  0  0  0  0  0  0  0  0
   -1.6706    1.6754   -0.4046 C   0  0  0  0  0  0  0  0  0  0  0  0
   -2.4402    0.2182    1.3626 C   0  0  0  0  0  0  0  0  0  0  0  0
   -2.6776    2.5906   -0.0890 C   0  0  0  0  0  0  0  0  0  0  0  0
   -3.4475    1.1330    1.6787 C   0  0  0  0  0  0  0  0  0  0  0  0
    2.6552    1.3455    1.1535 C   0  0  0  0  0  0  0  0  0  0  0  0
   -1.5351    0.4809    0.3212 C   0  0  0  0  0  0  0  0  0  0  0  0
   -3.5602    2.3155    0.9520 C   0  0  0  0  0  0  0  0  0  0  0  0
    0.9966    0.0324   -0.0593 C   0  0  0  0  0  0  0  0  0  0  0  0
   -0.4544   -0.5410   -0.0205 C   0  0  0  0  0  0  0  0  0  0  0  0
   -0.7876   -1.2067   -1.3523 C   0  0  0  0  0  0  0  0  0  0  0  0
   -4.9237    3.5533    1.3792 Br  0  0  0  0  0  0  0  0  0  0  0  0
    1.3181    0.7543    1.1945 N   0  0  0  0  0  0  0  0  0  0  0  0
   -0.4620   -0.7814   -2.4540 O   0  0  0  0  0  0  0  0  0  0  0  0
   -1.5122   -2.3453   -1.1423 O   0  0  0  0  0  0  0  0  0  0  0  0
   -1.0211   -3.3421   -2.9015 H   0  0  0  0  0  0  0  0  0  0  0  0
   -2.5337   -2.3642   -2.9560 H   0  0  0  0  0  0  0  0  0  0  0  0
   -2.4840   -3.8975   -2.0632 H   0  0  0  0  0  0  0  0  0  0  0  0
    3.6107    0.0687   -1.1758 H   0  0  0  0  0  0  0  0  0  0  0  0
    4.1771   -1.3782   -0.3426 H   0  0  0  0  0  0  0  0  0  0  0  0
    3.7629   -0.3733    1.8430 H   0  0  0  0  0  0  0  0  0  0  0  0
    4.7160    0.7591    0.8858 H   0  0  0  0  0  0  0  0  0  0  0  0
    1.8554   -1.6096   -1.2243 H   0  0  0  0  0  0  0  0  0  0  0  0
    1.9388   -1.8464    0.5184 H   0  0  0  0  0  0  0  0  0  0  0  0
   -0.9925    1.9053   -1.2244 H   0  0  0  0  0  0  0  0  0  0  0  0
   -2.3675   -0.7017    1.9388 H   0  0  0  0  0  0  0  0  0  0  0  0
   -2.7618    3.5108   -0.6606 H   0  0  0  0  0  0  0  0  0  0  0  0
   -4.1354    0.9138    2.4906 H   0  0  0  0  0  0  0  0  0  0  0  0
    2.7084    2.0926    0.3524 H   0  0  0  0  0  0  0  0  0  0  0  0
    2.8336    1.8814    2.0922 H   0  0  0  0  0  0  0  0  0  0  0  0
    1.0762    0.7430   -0.8930 H   0  0  0  0  0  0  0  0  0  0  0  0
   -0.4611   -1.3274    0.7486 H   0  0  0  0  0  0  0  0  0  0  0  0
    1.2536    0.1162    1.9874 H   0  0  0  0  0  0  0  0  0  0  0  0
  1 18  1  0
  2  3  1  0
  2  4  1  0
  3  9  1  0
  4 12  1  0
  5  7  2  0
  5 10  1  0
  6  8  1  0
  6 10  2  0
  7 11  1  0
  8 11  2  0
  9 16  1  0
 10 13  1  0
 11 15  1  0
 12 13  1  0
 12 16  1  0
 13 14  1  0
 14 17  2  0
 14 18  1  0
  1 19  1  0
  1 20  1  0
  1 21  1  0
  2 22  1  0
  2 23  1  0
  3 24  1  0
  3 25  1  0
  4 26  1  0
  4 27  1  0
  5 28  1  0
  6 29  1  0
  7 30  1  0
  8 31  1  0
  9 32  1  0
  9 33  1  0
 12 34  1  0
 13 35  1  0
 16 36  1  0
M  END
