
     RDKit          3D

 32 34  0  0  0  0  0  0  0  0999 V2000
    3.9166   -0.1961   -1.2059 C   0  0  0  0  0  0  0  0  0  0  0  0
    4.3446    0.5402   -0.1035 C   0  0  0  0  0  0  0  0  0  0  0  0
    2.6058   -0.6710   -1.2594 C   0  0  0  0  0  0  0  0  0  0  0  0
    3.4661    0.7922    0.9522 C   0  0  0  0  0  0  0  0  0  0  0  0
   -2.8971    1.8983    0.0716 C   0  0  0  0  0  0  0  0  0  0  0  0
   -3.0138    0.6219    0.6274 C   0  0  0  0  0  0  0  0  0  0  0  0
   -0.7035    1.3013   -0.7821 C   0  0  0  0  0  0  0  0  0  0  0  0
   -1.1291   -2.7646   -0.8035 C   0  0  0  0  0  0  0  0  0  0  0  0
   -1.7402    2.2312   -0.6364 C   0  0  0  0  0  0  0  0  0  0  0  0
    1.7107   -0.4019   -0.2119 C   0  0  0  0  0  0  0  0  0  0  0  0
   -0.8239    0.0239   -0.2044 C   0  0  0  0  0  0  0  0  0  0  0  0
    2.1500    0.3185    0.9070 C   0  0  0  0  0  0  0  0  0  0  0  0
   -1.9964   -0.3353    0.4904 C   0  0  0  0  0  0  0  0  0  0  0  0
   -1.8529   -2.6522    0.5107 C   0  0  0  0  0  0  0  0  0  0  0  0
    0.3197   -0.9272   -0.3595 C   0  0  0  0  0  0  0  0  0  0  0  0
    1.1527    0.6253    2.2834 Cl  0  0  0  0  0  0  0  0  0  0  0  0
    0.2051   -2.1792   -0.6606 N   0  0  0  0  0  0  0  0  0  0  0  0
   -2.2357   -1.5748    1.1079 N   0  0  0  0  0  0  0  0  0  0  0  0
   -1.6086    3.5673   -1.2315 N   0  0  0  0  0  4  0  0  0  0  0  0
   -2.1224   -3.8165    1.1166 O   0  0  0  0  0  0  0  0  0  0  0  0
   -2.5590    4.3513   -1.1039 O   0  0  0  0  0  1  0  0  0  0  0  0
   -0.5548    3.8281   -1.8284 O   0  0  0  0  0  0  0  0  0  0  0  0
    4.6043   -0.4063   -2.0220 H   0  0  0  0  0  0  0  0  0  0  0  0
    5.3675    0.9075   -0.0586 H   0  0  0  0  0  0  0  0  0  0  0  0
    2.2812   -1.2540   -2.1193 H   0  0  0  0  0  0  0  0  0  0  0  0
    3.8197    1.3511    1.8159 H   0  0  0  0  0  0  0  0  0  0  0  0
   -3.7109    2.6091    0.2017 H   0  0  0  0  0  0  0  0  0  0  0  0
   -3.9141    0.3614    1.1822 H   0  0  0  0  0  0  0  0  0  0  0  0
    0.1906    1.5644   -1.3439 H   0  0  0  0  0  0  0  0  0  0  0  0
   -1.7042   -2.2861   -1.6036 H   0  0  0  0  0  0  0  0  0  0  0  0
   -1.0228   -3.8215   -1.0692 H   0  0  0  0  0  0  0  0  0  0  0  0
   -2.5453   -3.6063    1.9657 H   0  0  0  0  0  0  0  0  0  0  0  0
  1  2  2  0
  1  3  1  0
  2  4  1  0
  3 10  2  0
  4 12  2  0
  5  6  2  0
  5  9  1  0
  6 13  1  0
  7  9  2  0
  7 11  1  0
  8 14  1  0
  8 17  1  0
  9 19  1  0
 10 12  1  0
 10 15  1  0
 11 13  2  0
 11 15  1  0
 12 16  1  0
 13 18  1  0
 14 18  2  0
 14 20  1  0
 15 17  2  0
 19 21  1  0
 19 22  2  0
  1 23  1  0
  2 24  1  0
  3 25  1  0
  4 26  1  0
  5 27  1  0
  6 28  1  0
  7 29  1  0
  8 30  1  0
  8 31  1  0
 20 32  1  0
M  CHG  2  19   1  21  -1
M  END
