
     RDKit          3D

 37 38  0  0  0  0  0  0  0  0999 V2000
   -3.0891    0.3444   -1.8231 C   0  0  0  0  0  0  0  0  0  0  0  0
   -3.6932    1.4192    0.3643 C   0  0  0  0  0  0  0  0  0  0  0  0
    3.2204    1.8345    1.4698 C   0  0  0  0  0  0  0  0  0  0  0  0
    2.0018    1.1857    1.6715 C   0  0  0  0  0  0  0  0  0  0  0  0
    4.0473    1.4571    0.4124 C   0  0  0  0  0  0  0  0  0  0  0  0
   -2.0079   -1.9491    0.0612 C   0  0  0  0  0  0  0  0  0  0  0  0
   -0.8870   -2.5890    0.8963 C   0  0  0  0  0  0  0  0  0  0  0  0
    2.4349   -0.2201   -0.2429 C   0  0  0  0  0  0  0  0  0  0  0  0
   -0.8587    0.1573    0.2112 C   0  0  0  0  0  0  0  0  0  0  0  0
   -3.2934    0.1067   -0.3222 C   0  0  0  0  0  0  0  0  0  0  0  0
    1.5957    0.1459    0.8223 C   0  0  0  0  0  0  0  0  0  0  0  0
    3.6606    0.4305   -0.4609 C   0  0  0  0  0  0  0  0  0  0  0  0
    0.2557   -0.5329    1.0436 C   0  0  0  0  0  0  0  0  0  0  0  0
    4.5609    0.0023   -1.5928 C   0  0  0  0  0  0  0  0  0  0  0  0
    5.3743    1.0027   -2.0367 F   0  0  0  0  0  0  0  0  0  0  0  0
    5.3878   -1.0214   -1.2437 F   0  0  0  0  0  0  0  0  0  0  0  0
    3.8753   -0.4265   -2.6899 F   0  0  0  0  0  0  0  0  0  0  0  0
   -2.1637   -0.5178    0.3914 N   0  0  0  0  0  0  0  0  0  0  0  0
    0.3651   -1.9245    0.6868 O   0  0  0  0  0  0  0  0  0  0  0  0
   -2.8295   -0.5796   -2.3481 H   0  0  0  0  0  0  0  0  0  0  0  0
   -4.0133    0.7228   -2.2744 H   0  0  0  0  0  0  0  0  0  0  0  0
   -2.3063    1.0845   -2.0186 H   0  0  0  0  0  0  0  0  0  0  0  0
   -2.9378    2.2009    0.2349 H   0  0  0  0  0  0  0  0  0  0  0  0
   -3.8510    1.2687    1.4381 H   0  0  0  0  0  0  0  0  0  0  0  0
   -4.6327    1.7974   -0.0544 H   0  0  0  0  0  0  0  0  0  0  0  0
    3.5268    2.6338    2.1405 H   0  0  0  0  0  0  0  0  0  0  0  0
    1.3702    1.4949    2.5023 H   0  0  0  0  0  0  0  0  0  0  0  0
    4.9983    1.9684    0.2704 H   0  0  0  0  0  0  0  0  0  0  0  0
   -2.9409   -2.4872    0.2633 H   0  0  0  0  0  0  0  0  0  0  0  0
   -1.7666   -2.0717   -1.0014 H   0  0  0  0  0  0  0  0  0  0  0  0
   -0.7578   -3.6347    0.5992 H   0  0  0  0  0  0  0  0  0  0  0  0
   -1.1303   -2.5765    1.9656 H   0  0  0  0  0  0  0  0  0  0  0  0
    2.1314   -1.0289   -0.9089 H   0  0  0  0  0  0  0  0  0  0  0  0
   -0.9269    1.2064    0.5194 H   0  0  0  0  0  0  0  0  0  0  0  0
   -0.5715    0.1390   -0.8480 H   0  0  0  0  0  0  0  0  0  0  0  0
   -4.1608   -0.5584   -0.2124 H   0  0  0  0  0  0  0  0  0  0  0  0
    0.0118   -0.4849    2.1139 H   0  0  0  0  0  0  0  0  0  0  0  0
  1 10  1  0
  2 10  1  0
  3  4  2  0
  3  5  1  0
  4 11  1  0
  5 12  2  0
  6  7  1  0
  6 18  1  0
  7 19  1  0
  8 11  2  0
  8 12  1  0
  9 13  1  0
  9 18  1  0
 10 18  1  0
 11 13  1  0
 12 14  1  0
 13 19  1  0
 14 15  1  0
 14 16  1  0
 14 17  1  0
  1 20  1  0
  1 21  1  0
  1 22  1  0
  2 23  1  0
  2 24  1  0
  2 25  1  0
  3 26  1  0
  4 27  1  0
  5 28  1  0
  6 29  1  0
  6 30  1  0
  7 31  1  0
  7 32  1  0
  8 33  1  0
  9 34  1  0
  9 35  1  0
 10 36  1  0
 13 37  1  0
M  END
