
     RDKit          3D

 33 35  0  0  0  0  0  0  0  0999 V2000
    2.0253    0.3287   -3.1036 C   0  0  0  0  0  0  0  0  0  0  0  0
    3.3369   -0.0554   -2.8129 C   0  0  0  0  0  0  0  0  0  0  0  0
    0.9990    0.0654   -2.1938 C   0  0  0  0  0  0  0  0  0  0  0  0
    3.6267   -0.7048   -1.6117 C   0  0  0  0  0  0  0  0  0  0  0  0
   -1.9119    2.5430    1.5182 C   0  0  0  0  0  0  0  0  0  0  0  0
   -2.6188    1.4043    1.1234 C   0  0  0  0  0  0  0  0  0  0  0  0
    0.1665    1.4367    0.9204 C   0  0  0  0  0  0  0  0  0  0  0  0
   -0.5182    2.5528    1.4172 C   0  0  0  0  0  0  0  0  0  0  0  0
    1.2950   -0.5839   -0.9898 C   0  0  0  0  0  0  0  0  0  0  0  0
   -0.5551    0.2988    0.5178 C   0  0  0  0  0  0  0  0  0  0  0  0
    2.6042   -0.9690   -0.7051 C   0  0  0  0  0  0  0  0  0  0  0  0
   -1.9603    0.2675    0.6317 C   0  0  0  0  0  0  0  0  0  0  0  0
    0.2087   -0.8687   -0.0207 C   0  0  0  0  0  0  0  0  0  0  0  0
   -2.3958   -2.0088    0.5184 C   0  0  0  0  0  0  0  0  0  0  0  0
   -1.0857   -2.4304    1.2059 C   0  0  0  0  0  0  0  0  0  0  0  0
    2.9120   -1.5555    0.4604 F   0  0  0  0  0  0  0  0  0  0  0  0
   -2.7827   -0.8055    0.2463 N   0  0  0  0  0  0  0  0  0  0  0  0
   -0.0092   -2.1077    0.2735 N   0  0  0  0  0  0  0  0  0  0  0  0
    0.2337    3.7451    1.8298 N   0  0  0  0  0  4  0  0  0  0  0  0
   -3.1966   -3.0102    0.1174 O   0  0  0  0  0  0  0  0  0  0  0  0
   -1.0959   -3.7983    1.5637 O   0  0  0  0  0  0  0  0  0  0  0  0
   -0.4018    4.6792    2.3371 O   0  0  0  0  0  1  0  0  0  0  0  0
    1.4576    3.7450    1.6397 O   0  0  0  0  0  0  0  0  0  0  0  0
    1.8034    0.8275   -4.0447 H   0  0  0  0  0  0  0  0  0  0  0  0
    4.1339    0.1496   -3.5243 H   0  0  0  0  0  0  0  0  0  0  0  0
   -0.0214    0.3503   -2.4371 H   0  0  0  0  0  0  0  0  0  0  0  0
    4.6431   -1.0040   -1.3744 H   0  0  0  0  0  0  0  0  0  0  0  0
   -2.4617    3.4026    1.8977 H   0  0  0  0  0  0  0  0  0  0  0  0
   -3.7055    1.3972    1.1993 H   0  0  0  0  0  0  0  0  0  0  0  0
    1.2534    1.4449    0.8592 H   0  0  0  0  0  0  0  0  0  0  0  0
   -0.9817   -1.8737    2.1440 H   0  0  0  0  0  0  0  0  0  0  0  0
   -3.9706   -2.6095   -0.3103 H   0  0  0  0  0  0  0  0  0  0  0  0
   -1.0264   -4.2534    0.7073 H   0  0  0  0  0  0  0  0  0  0  0  0
  1  2  2  0
  1  3  1  0
  2  4  1  0
  3  9  2  0
  4 11  2  0
  5  6  2  0
  5  8  1  0
  6 12  1  0
  7  8  2  0
  7 10  1  0
  8 19  1  0
  9 11  1  0
  9 13  1  0
 10 12  2  0
 10 13  1  0
 11 16  1  0
 12 17  1  0
 13 18  2  0
 14 15  1  0
 14 17  2  0
 14 20  1  0
 15 18  1  0
 15 21  1  0
 19 22  1  0
 19 23  2  0
  1 24  1  0
  2 25  1  0
  3 26  1  0
  4 27  1  0
  5 28  1  0
  6 29  1  0
  7 30  1  0
 15 31  1  0
 20 32  1  0
 21 33  1  0
M  CHG  2  19   1  22  -1
M  END
