
     RDKit          3D

 35 36  0  0  0  0  0  0  0  0999 V2000
   -4.9862    0.4759    1.2068 C   0  0  0  0  0  0  0  0  0  0  0  0
   -2.3419   -2.1338   -1.0426 C   0  0  0  0  0  0  0  0  0  0  0  0
   -4.4523   -0.3024    0.2550 C   0  0  0  0  0  0  0  0  0  0  0  0
    4.9388   -0.4736    0.7616 C   0  0  0  0  0  0  0  0  0  0  0  0
    4.7193    0.7208    0.0725 C   0  0  0  0  0  0  0  0  0  0  0  0
    3.8709   -1.2272    1.2356 C   0  0  0  0  0  0  0  0  0  0  0  0
   -0.3225    0.8006    0.1944 C   0  0  0  0  0  0  0  0  0  0  0  0
   -3.2476    0.0622   -0.5681 C   0  0  0  0  0  0  0  0  0  0  0  0
   -0.8423   -0.2758   -0.7773 C   0  0  0  0  0  0  0  0  0  0  0  0
    1.5509    2.2689   -0.7305 C   0  0  0  0  0  0  0  0  0  0  0  0
    1.1149    1.1434   -0.0564 C   0  0  0  0  0  0  0  0  0  0  0  0
    3.3938    1.1332   -0.1245 C   0  0  0  0  0  0  0  0  0  0  0  0
    2.5559   -0.8000    1.0309 C   0  0  0  0  0  0  0  0  0  0  0  0
    2.2893    0.4068    0.3372 C   0  0  0  0  0  0  0  0  0  0  0  0
    2.9159    2.2529   -0.7620 N   0  0  0  0  0  0  0  0  0  0  0  0
   -2.1251   -0.8631   -0.3381 N   0  0  0  0  0  0  0  0  0  0  0  0
    1.5774   -1.6280    1.5401 O   0  0  0  0  0  0  0  0  0  0  0  0
   -5.8609    0.1513    1.7617 H   0  0  0  0  0  0  0  0  0  0  0  0
   -4.5593    1.4404    1.4623 H   0  0  0  0  0  0  0  0  0  0  0  0
   -3.2538   -2.6332   -0.7005 H   0  0  0  0  0  0  0  0  0  0  0  0
   -1.5227   -2.8318   -0.8342 H   0  0  0  0  0  0  0  0  0  0  0  0
   -2.4078   -1.9968   -2.1281 H   0  0  0  0  0  0  0  0  0  0  0  0
   -4.9256   -1.2577    0.0452 H   0  0  0  0  0  0  0  0  0  0  0  0
    5.9559   -0.8190    0.9297 H   0  0  0  0  0  0  0  0  0  0  0  0
    5.5551    1.3070   -0.2964 H   0  0  0  0  0  0  0  0  0  0  0  0
    4.0550   -2.1554    1.7699 H   0  0  0  0  0  0  0  0  0  0  0  0
   -0.9248    1.7125    0.1020 H   0  0  0  0  0  0  0  0  0  0  0  0
   -0.4371    0.4721    1.2343 H   0  0  0  0  0  0  0  0  0  0  0  0
   -2.9614    1.0870   -0.3061 H   0  0  0  0  0  0  0  0  0  0  0  0
   -3.5256    0.0904   -1.6297 H   0  0  0  0  0  0  0  0  0  0  0  0
   -0.9209    0.1329   -1.7939 H   0  0  0  0  0  0  0  0  0  0  0  0
   -0.0887   -1.0727   -0.8288 H   0  0  0  0  0  0  0  0  0  0  0  0
    1.0007    3.0817   -1.1861 H   0  0  0  0  0  0  0  0  0  0  0  0
    3.4985    2.9591   -1.1898 H   0  0  0  0  0  0  0  0  0  0  0  0
    0.7144   -1.2284    1.3540 H   0  0  0  0  0  0  0  0  0  0  0  0
  1  3  2  3
  2 16  1  0
  3  8  1  0
  4  5  2  0
  4  6  1  0
  5 12  1  0
  6 13  2  0
  7  9  1  0
  7 11  1  0
  8 16  1  0
  9 16  1  0
 10 11  2  0
 10 15  1  0
 11 14  1  0
 12 14  2  0
 12 15  1  0
 13 14  1  0
 13 17  1  0
  1 18  1  0
  1 19  1  0
  2 20  1  0
  2 21  1  0
  2 22  1  0
  3 23  1  0
  4 24  1  0
  5 25  1  0
  6 26  1  0
  7 27  1  0
  7 28  1  0
  8 29  1  0
  8 30  1  0
  9 31  1  0
  9 32  1  0
 10 33  1  0
 15 34  1  0
 17 35  1  0
M  END
