
     RDKit          3D

 38 39  0  0  0  0  0  0  0  0999 V2000
   -1.7749    3.3721    0.7912 C   0  0  0  0  0  0  0  0  0  0  0  0
   -2.6199   -0.9659    1.3136 C   0  0  0  0  0  0  0  0  0  0  0  0
   -3.7118   -1.3057    0.2993 C   0  0  0  0  0  0  0  0  0  0  0  0
   -1.2387   -1.3817    0.8157 C   0  0  0  0  0  0  0  0  0  0  0  0
    2.4337    1.1956   -0.8585 C   0  0  0  0  0  0  0  0  0  0  0  0
    2.0838   -0.9883    0.1109 C   0  0  0  0  0  0  0  0  0  0  0  0
    3.8179    1.0319   -0.7576 C   0  0  0  0  0  0  0  0  0  0  0  0
    3.4686   -1.1623    0.2164 C   0  0  0  0  0  0  0  0  0  0  0  0
   -3.1759   -1.4787   -1.1201 C   0  0  0  0  0  0  0  0  0  0  0  0
    1.5437    0.1893   -0.4289 C   0  0  0  0  0  0  0  0  0  0  0  0
    4.3311   -0.1507   -0.2185 C   0  0  0  0  0  0  0  0  0  0  0  0
   -0.8947   -0.7973   -0.5791 C   0  0  0  0  0  0  0  0  0  0  0  0
    0.0369    0.4545   -0.5631 C   0  0  0  0  0  0  0  0  0  0  0  0
   -0.4281    1.4822    0.4647 C   0  0  0  0  0  0  0  0  0  0  0  0
   -2.1091   -0.5206   -1.3834 N   0  0  0  0  0  0  0  0  0  0  0  0
    5.7834   -0.3329   -0.1090 N   0  0  0  0  0  4  0  0  0  0  0  0
   -0.0945    1.4988    1.6440 O   0  0  0  0  0  0  0  0  0  0  0  0
    6.1970   -1.4019    0.3628 O   0  0  0  0  0  1  0  0  0  0  0  0
    6.5120    0.5905   -0.4998 O   0  0  0  0  0  0  0  0  0  0  0  0
   -1.2641    2.3931   -0.1131 O   0  0  0  0  0  0  0  0  0  0  0  0
   -2.3487    2.8940    1.5914 H   0  0  0  0  0  0  0  0  0  0  0  0
   -2.4444    4.0323    0.2331 H   0  0  0  0  0  0  0  0  0  0  0  0
   -0.9594    3.9741    1.2039 H   0  0  0  0  0  0  0  0  0  0  0  0
   -2.6332    0.1129    1.5063 H   0  0  0  0  0  0  0  0  0  0  0  0
   -2.8393   -1.4502    2.2720 H   0  0  0  0  0  0  0  0  0  0  0  0
   -4.2192   -2.2306    0.5988 H   0  0  0  0  0  0  0  0  0  0  0  0
   -4.4714   -0.5145    0.3220 H   0  0  0  0  0  0  0  0  0  0  0  0
   -0.4865   -1.1170    1.5654 H   0  0  0  0  0  0  0  0  0  0  0  0
   -1.2228   -2.4781    0.7460 H   0  0  0  0  0  0  0  0  0  0  0  0
    2.0492    2.1264   -1.2756 H   0  0  0  0  0  0  0  0  0  0  0  0
    1.4489   -1.7945    0.4680 H   0  0  0  0  0  0  0  0  0  0  0  0
    4.4729    1.8314   -1.0975 H   0  0  0  0  0  0  0  0  0  0  0  0
    3.8533   -2.0868    0.6432 H   0  0  0  0  0  0  0  0  0  0  0  0
   -2.8176   -2.5033   -1.2792 H   0  0  0  0  0  0  0  0  0  0  0  0
   -3.9942   -1.3208   -1.8314 H   0  0  0  0  0  0  0  0  0  0  0  0
   -0.3595   -1.5889   -1.1227 H   0  0  0  0  0  0  0  0  0  0  0  0
   -0.0531    0.9258   -1.5550 H   0  0  0  0  0  0  0  0  0  0  0  0
   -1.8715   -0.5338   -2.3760 H   0  0  0  0  0  0  0  0  0  0  0  0
  1 20  1  0
  2  3  1  0
  2  4  1  0
  3  9  1  0
  4 12  1  0
  5  7  2  0
  5 10  1  0
  6  8  1  0
  6 10  2  0
  7 11  1  0
  8 11  2  0
  9 15  1  0
 10 13  1  0
 11 16  1  0
 12 13  1  0
 12 15  1  0
 13 14  1  0
 14 17  2  0
 14 20  1  0
 16 18  1  0
 16 19  2  0
  1 21  1  0
  1 22  1  0
  1 23  1  0
  2 24  1  0
  2 25  1  0
  3 26  1  0
  3 27  1  0
  4 28  1  0
  4 29  1  0
  5 30  1  0
  6 31  1  0
  7 32  1  0
  8 33  1  0
  9 34  1  0
  9 35  1  0
 12 36  1  0
 13 37  1  0
 15 38  1  0
M  CHG  2  16   1  18  -1
M  END
