
     RDKit          3D

 35 36  0  0  0  0  0  0  0  0999 V2000
    3.6295   -1.2379   -1.5507 C   0  0  0  0  0  0  0  0  0  0  0  0
   -2.0399    2.8237   -0.6573 C   0  0  0  0  0  0  0  0  0  0  0  0
   -1.6665   -1.8893    0.7144 C   0  0  0  0  0  0  0  0  0  0  0  0
   -1.5755   -1.5731   -0.7758 C   0  0  0  0  0  0  0  0  0  0  0  0
    2.6270    0.3106    1.7626 C   0  0  0  0  0  0  0  0  0  0  0  0
    3.3827   -0.3096    0.7726 C   0  0  0  0  0  0  0  0  0  0  0  0
    1.2962    0.6542    1.5175 C   0  0  0  0  0  0  0  0  0  0  0  0
   -2.3624   -0.7841    1.4888 C   0  0  0  0  0  0  0  0  0  0  0  0
   -1.4974   -0.0689   -1.0733 C   0  0  0  0  0  0  0  0  0  0  0  0
    1.4777   -0.2281   -0.7126 C   0  0  0  0  0  0  0  0  0  0  0  0
    2.8214   -0.5649   -0.4802 C   0  0  0  0  0  0  0  0  0  0  0  0
    0.6788    0.3622    0.2863 C   0  0  0  0  0  0  0  0  0  0  0  0
   -1.6478    0.5498    1.3403 C   0  0  0  0  0  0  0  0  0  0  0  0
   -0.7943    0.7644    0.0371 C   0  0  0  0  0  0  0  0  0  0  0  0
   -0.7675    2.2075   -0.3247 N   0  0  0  0  0  0  0  0  0  0  0  0
   -1.7868    1.4020    2.2242 O   0  0  0  0  0  0  0  0  0  0  0  0
    3.4792   -2.3209   -1.5069 H   0  0  0  0  0  0  0  0  0  0  0  0
    4.6968   -1.0245   -1.4298 H   0  0  0  0  0  0  0  0  0  0  0  0
    3.3376   -0.8782   -2.5430 H   0  0  0  0  0  0  0  0  0  0  0  0
   -1.8977    3.9060   -0.7430 H   0  0  0  0  0  0  0  0  0  0  0  0
   -2.4222    2.4745   -1.6211 H   0  0  0  0  0  0  0  0  0  0  0  0
   -2.8015    2.6623    0.1104 H   0  0  0  0  0  0  0  0  0  0  0  0
   -0.6569   -2.0363    1.1169 H   0  0  0  0  0  0  0  0  0  0  0  0
   -2.1935   -2.8398    0.8563 H   0  0  0  0  0  0  0  0  0  0  0  0
   -0.7122   -2.0969   -1.2017 H   0  0  0  0  0  0  0  0  0  0  0  0
   -2.4540   -1.9817   -1.2908 H   0  0  0  0  0  0  0  0  0  0  0  0
    3.0742    0.5390    2.7267 H   0  0  0  0  0  0  0  0  0  0  0  0
    4.4169   -0.5744    0.9794 H   0  0  0  0  0  0  0  0  0  0  0  0
    0.7489    1.1734    2.3036 H   0  0  0  0  0  0  0  0  0  0  0  0
   -3.3934   -0.6579    1.1407 H   0  0  0  0  0  0  0  0  0  0  0  0
   -2.3860   -1.0449    2.5524 H   0  0  0  0  0  0  0  0  0  0  0  0
   -1.0399    0.0882   -2.0577 H   0  0  0  0  0  0  0  0  0  0  0  0
   -2.5367    0.2728   -1.1790 H   0  0  0  0  0  0  0  0  0  0  0  0
    1.0690   -0.4303   -1.6992 H   0  0  0  0  0  0  0  0  0  0  0  0
   -0.1039    2.3511   -1.0834 H   0  0  0  0  0  0  0  0  0  0  0  0
  1 11  1  0
  2 15  1  0
  3  4  1  0
  3  8  1  0
  4  9  1  0
  5  6  2  0
  5  7  1  0
  6 11  1  0
  7 12  2  0
  8 13  1  0
  9 14  1  0
 10 11  2  0
 10 12  1  0
 12 14  1  0
 13 14  1  0
 13 16  2  0
 14 15  1  0
  1 17  1  0
  1 18  1  0
  1 19  1  0
  2 20  1  0
  2 21  1  0
  2 22  1  0
  3 23  1  0
  3 24  1  0
  4 25  1  0
  4 26  1  0
  5 27  1  0
  6 28  1  0
  7 29  1  0
  8 30  1  0
  8 31  1  0
  9 32  1  0
  9 33  1  0
 10 34  1  0
 15 35  1  0
M  END
