
     RDKit          3D

 36 38  0  0  0  0  0  0  0  0999 V2000
   -0.3284    1.7593   -1.1733 C   0  0  0  0  0  0  0  0  0  0  0  0
   -5.2566   -0.1145    0.6943 C   0  0  0  0  0  0  0  0  0  0  0  0
   -4.7834   -1.3100   -0.0858 C   0  0  0  0  0  0  0  0  0  0  0  0
    2.2453   -1.3297   -0.9563 C   0  0  0  0  0  0  0  0  0  0  0  0
    3.6410   -1.3463   -1.0417 C   0  0  0  0  0  0  0  0  0  0  0  0
    0.0700   -0.4665    0.0245 C   0  0  0  0  0  0  0  0  0  0  0  0
    2.3342    0.3701    0.7854 C   0  0  0  0  0  0  0  0  0  0  0  0
   -2.8566    0.4596   -0.1518 C   0  0  0  0  0  0  0  0  0  0  0  0
    5.8409    0.6210    0.8673 C   0  0  0  0  0  0  0  0  0  0  0  0
   -0.6064    0.2516   -1.1680 C   0  0  0  0  0  0  0  0  0  0  0  0
   -4.2758    0.0671   -0.4364 C   0  0  0  0  0  0  0  0  0  0  0  0
    1.5814   -0.4746   -0.0464 C   0  0  0  0  0  0  0  0  0  0  0  0
    4.3439   -0.5029   -0.2102 C   0  0  0  0  0  0  0  0  0  0  0  0
    3.7086    0.3315    0.6782 C   0  0  0  0  0  0  0  0  0  0  0  0
   -2.0509   -0.0342   -1.2630 N   0  0  0  0  0  0  0  0  0  0  0  0
    5.6975   -0.3851   -0.1566 O   0  0  0  0  0  0  0  0  0  0  0  0
    4.5825    1.0804    1.4029 O   0  0  0  0  0  0  0  0  0  0  0  0
   -0.6041    2.2303   -0.2241 H   0  0  0  0  0  0  0  0  0  0  0  0
    0.7343    1.9589   -1.3470 H   0  0  0  0  0  0  0  0  0  0  0  0
   -0.8826    2.2569   -1.9771 H   0  0  0  0  0  0  0  0  0  0  0  0
   -6.2753    0.2225    0.5383 H   0  0  0  0  0  0  0  0  0  0  0  0
   -4.9054   -0.0024    1.7136 H   0  0  0  0  0  0  0  0  0  0  0  0
   -4.1123   -2.0033    0.4078 H   0  0  0  0  0  0  0  0  0  0  0  0
   -5.4800   -1.7788   -0.7716 H   0  0  0  0  0  0  0  0  0  0  0  0
    1.6697   -1.9887   -1.6039 H   0  0  0  0  0  0  0  0  0  0  0  0
    4.1544   -1.9996   -1.7379 H   0  0  0  0  0  0  0  0  0  0  0  0
   -0.2647   -1.5119    0.0680 H   0  0  0  0  0  0  0  0  0  0  0  0
   -0.2450   -0.0135    0.9732 H   0  0  0  0  0  0  0  0  0  0  0  0
    1.8612    1.0413    1.4943 H   0  0  0  0  0  0  0  0  0  0  0  0
   -2.5284    0.0339    0.8022 H   0  0  0  0  0  0  0  0  0  0  0  0
   -2.8119    1.5506   -0.0791 H   0  0  0  0  0  0  0  0  0  0  0  0
    6.3752    1.4790    0.4431 H   0  0  0  0  0  0  0  0  0  0  0  0
    6.4390    0.2048    1.6861 H   0  0  0  0  0  0  0  0  0  0  0  0
   -0.1750   -0.1459   -2.0958 H   0  0  0  0  0  0  0  0  0  0  0  0
   -4.6492    0.5311   -1.3440 H   0  0  0  0  0  0  0  0  0  0  0  0
   -2.1870   -1.0419   -1.3404 H   0  0  0  0  0  0  0  0  0  0  0  0
  1 10  1  0
  2  3  1  0
  2 11  1  0
  3 11  1  0
  4  5  2  0
  4 12  1  0
  5 13  1  0
  6 10  1  0
  6 12  1  0
  7 12  2  0
  7 14  1  0
  8 11  1  0
  8 15  1  0
  9 16  1  0
  9 17  1  0
 10 15  1  0
 13 14  2  0
 13 16  1  0
 14 17  1  0
  1 18  1  0
  1 19  1  0
  1 20  1  0
  2 21  1  0
  2 22  1  0
  3 23  1  0
  3 24  1  0
  4 25  1  0
  5 26  1  0
  6 27  1  0
  6 28  1  0
  7 29  1  0
  8 30  1  0
  8 31  1  0
  9 32  1  0
  9 33  1  0
 10 34  1  0
 11 35  1  0
 15 36  1  0
M  END
