
     RDKit          3D

 36 37  0  0  0  0  0  0  0  0999 V2000
   -1.9402    0.0822   -2.9439 C   0  0  0  0  0  0  0  0  0  0  0  0
    5.6995   -0.7004    1.5475 C   0  0  0  0  0  0  0  0  0  0  0  0
   -3.6197    1.3882    0.8741 C   0  0  0  0  0  0  0  0  0  0  0  0
   -3.5562   -0.1189    1.1023 C   0  0  0  0  0  0  0  0  0  0  0  0
    2.1921   -1.4472   -0.7040 C   0  0  0  0  0  0  0  0  0  0  0  0
    1.3095    0.6396    0.1172 C   0  0  0  0  0  0  0  0  0  0  0  0
    3.3683   -1.2487    0.0296 C   0  0  0  0  0  0  0  0  0  0  0  0
    2.4858    0.8338    0.8499 C   0  0  0  0  0  0  0  0  0  0  0  0
   -2.7878    1.6400   -0.3761 C   0  0  0  0  0  0  0  0  0  0  0  0
   -2.7504   -0.6646   -0.0676 C   0  0  0  0  0  0  0  0  0  0  0  0
   -1.1292    0.3381   -1.6663 C   0  0  0  0  0  0  0  0  0  0  0  0
    1.1545   -0.5041   -0.6707 C   0  0  0  0  0  0  0  0  0  0  0  0
    3.5201   -0.1039    0.8096 C   0  0  0  0  0  0  0  0  0  0  0  0
   -0.0748   -0.7742   -1.4847 C   0  0  0  0  0  0  0  0  0  0  0  0
   -1.9074    0.4765   -0.4228 N   0  0  0  0  0  0  0  0  0  0  0  0
   -0.2055   -1.8878   -1.9986 O   0  0  0  0  0  0  0  0  0  0  0  0
    4.6088    0.2122    1.5733 O   0  0  0  0  0  0  0  0  0  0  0  0
   -2.6381    0.8982   -3.1523 H   0  0  0  0  0  0  0  0  0  0  0  0
   -2.5062   -0.8537   -2.8998 H   0  0  0  0  0  0  0  0  0  0  0  0
   -1.2679    0.0041   -3.8064 H   0  0  0  0  0  0  0  0  0  0  0  0
    6.1190   -0.7845    0.5397 H   0  0  0  0  0  0  0  0  0  0  0  0
    5.4043   -1.6803    1.9370 H   0  0  0  0  0  0  0  0  0  0  0  0
    6.4817   -0.3049    2.2023 H   0  0  0  0  0  0  0  0  0  0  0  0
   -4.6507    1.7326    0.7422 H   0  0  0  0  0  0  0  0  0  0  0  0
   -3.1982    1.9139    1.7391 H   0  0  0  0  0  0  0  0  0  0  0  0
   -3.0489   -0.3272    2.0518 H   0  0  0  0  0  0  0  0  0  0  0  0
   -4.5542   -0.5657    1.1508 H   0  0  0  0  0  0  0  0  0  0  0  0
    2.0908   -2.3500   -1.3045 H   0  0  0  0  0  0  0  0  0  0  0  0
    0.5279    1.3889    0.1974 H   0  0  0  0  0  0  0  0  0  0  0  0
    4.1394   -2.0095   -0.0309 H   0  0  0  0  0  0  0  0  0  0  0  0
    2.5928    1.7241    1.4656 H   0  0  0  0  0  0  0  0  0  0  0  0
   -3.4520    1.6987   -1.2457 H   0  0  0  0  0  0  0  0  0  0  0  0
   -2.2287    2.5780   -0.3006 H   0  0  0  0  0  0  0  0  0  0  0  0
   -3.4336   -0.9487   -0.8754 H   0  0  0  0  0  0  0  0  0  0  0  0
   -2.1712   -1.5437    0.2306 H   0  0  0  0  0  0  0  0  0  0  0  0
   -0.5735    1.2688   -1.8412 H   0  0  0  0  0  0  0  0  0  0  0  0
  1 11  1  0
  2 17  1  0
  3  4  1  0
  3  9  1  0
  4 10  1  0
  5  7  2  0
  5 12  1  0
  6  8  1  0
  6 12  2  0
  7 13  1  0
  8 13  2  0
  9 15  1  0
 10 15  1  0
 11 14  1  0
 11 15  1  0
 12 14  1  0
 13 17  1  0
 14 16  2  0
  1 18  1  0
  1 19  1  0
  1 20  1  0
  2 21  1  0
  2 22  1  0
  2 23  1  0
  3 24  1  0
  3 25  1  0
  4 26  1  0
  4 27  1  0
  5 28  1  0
  6 29  1  0
  7 30  1  0
  8 31  1  0
  9 32  1  0
  9 33  1  0
 10 34  1  0
 10 35  1  0
 11 36  1  0
M  END
