
     RDKit          3D

 37 38  0  0  0  0  0  0  0  0999 V2000
   -3.6551    1.5414   -0.5019 C   0  0  0  0  0  0  0  0  0  0  0  0
   -2.9019   -1.2774    1.5969 C   0  0  0  0  0  0  0  0  0  0  0  0
   -1.7644   -2.5088   -0.0961 C   0  0  0  0  0  0  0  0  0  0  0  0
   -2.2547    2.0611   -0.2302 C   0  0  0  0  0  0  0  0  0  0  0  0
   -1.4254    1.2432    0.7710 C   0  0  0  0  0  0  0  0  0  0  0  0
    1.9234   -0.3459   -2.1340 C   0  0  0  0  0  0  0  0  0  0  0  0
    3.3204   -0.2994   -2.1985 C   0  0  0  0  0  0  0  0  0  0  0  0
    1.9628    0.2181    0.2334 C   0  0  0  0  0  0  0  0  0  0  0  0
    5.4671    0.4421    0.4837 C   0  0  0  0  0  0  0  0  0  0  0  0
    1.2340   -0.0937   -0.9222 C   0  0  0  0  0  0  0  0  0  0  0  0
   -1.0484   -0.2121    0.3890 C   0  0  0  0  0  0  0  0  0  0  0  0
    4.0005    0.0044   -1.0420 C   0  0  0  0  0  0  0  0  0  0  0  0
    3.3401    0.2564    0.1368 C   0  0  0  0  0  0  0  0  0  0  0  0
   -0.2638   -0.1668   -0.9473 C   0  0  0  0  0  0  0  0  0  0  0  0
   -2.1956   -1.1657    0.3161 N   0  0  0  0  0  0  0  0  0  0  0  0
   -0.8163   -0.1820   -2.0492 O   0  0  0  0  0  0  0  0  0  0  0  0
    5.3498    0.0969   -0.9119 O   0  0  0  0  0  0  0  0  0  0  0  0
    4.1938    0.5414    1.1573 O   0  0  0  0  0  0  0  0  0  0  0  0
   -4.2063    2.2623   -1.1151 H   0  0  0  0  0  0  0  0  0  0  0  0
   -4.2137    1.4010    0.4281 H   0  0  0  0  0  0  0  0  0  0  0  0
   -3.6371    0.5978   -1.0529 H   0  0  0  0  0  0  0  0  0  0  0  0
   -3.7223   -2.0010    1.5228 H   0  0  0  0  0  0  0  0  0  0  0  0
   -2.2367   -1.5982    2.4066 H   0  0  0  0  0  0  0  0  0  0  0  0
   -3.3714   -0.3336    1.8862 H   0  0  0  0  0  0  0  0  0  0  0  0
   -2.6197   -3.1942   -0.1272 H   0  0  0  0  0  0  0  0  0  0  0  0
   -1.0171   -2.9266    0.5885 H   0  0  0  0  0  0  0  0  0  0  0  0
   -1.3485   -2.5138   -1.1079 H   0  0  0  0  0  0  0  0  0  0  0  0
   -2.3466    3.0787    0.1709 H   0  0  0  0  0  0  0  0  0  0  0  0
   -1.7151    2.1635   -1.1780 H   0  0  0  0  0  0  0  0  0  0  0  0
   -0.4924    1.8016    0.9261 H   0  0  0  0  0  0  0  0  0  0  0  0
   -1.9233    1.2619    1.7472 H   0  0  0  0  0  0  0  0  0  0  0  0
    1.3632   -0.5819   -3.0388 H   0  0  0  0  0  0  0  0  0  0  0  0
    3.8468   -0.4930   -3.1264 H   0  0  0  0  0  0  0  0  0  0  0  0
    1.5026    0.4418    1.1870 H   0  0  0  0  0  0  0  0  0  0  0  0
    6.0699   -0.3236    0.9853 H   0  0  0  0  0  0  0  0  0  0  0  0
    5.9828    1.4059    0.5651 H   0  0  0  0  0  0  0  0  0  0  0  0
   -0.3814   -0.6017    1.1671 H   0  0  0  0  0  0  0  0  0  0  0  0
  1  4  1  0
  2 15  1  0
  3 15  1  0
  4  5  1  0
  5 11  1  0
  6  7  2  0
  6 10  1  0
  7 12  1  0
  8 10  2  0
  8 13  1  0
  9 17  1  0
  9 18  1  0
 10 14  1  0
 11 14  1  0
 11 15  1  0
 12 13  2  0
 12 17  1  0
 13 18  1  0
 14 16  2  0
  1 19  1  0
  1 20  1  0
  1 21  1  0
  2 22  1  0
  2 23  1  0
  2 24  1  0
  3 25  1  0
  3 26  1  0
  3 27  1  0
  4 28  1  0
  4 29  1  0
  5 30  1  0
  5 31  1  0
  6 32  1  0
  7 33  1  0
  8 34  1  0
  9 35  1  0
  9 36  1  0
 11 37  1  0
M  END
