
     RDKit          3D

 37 38  0  0  0  0  0  0  0  0999 V2000
   -5.1568    2.2505   -0.0397 C   0  0  0  0  0  0  0  0  0  0  0  0
    4.9080    0.9251   -0.1058 C   0  0  0  0  0  0  0  0  0  0  0  0
    3.1348    2.5367    0.1310 C   0  0  0  0  0  0  0  0  0  0  0  0
   -4.5954    0.8458   -0.1687 C   0  0  0  0  0  0  0  0  0  0  0  0
   -3.0225   -1.5170   -0.3046 C   0  0  0  0  0  0  0  0  0  0  0  0
   -2.2077   -2.6555   -0.3703 C   0  0  0  0  0  0  0  0  0  0  0  0
    2.1848   -0.3892    0.4963 C   0  0  0  0  0  0  0  0  0  0  0  0
    2.6389    0.3305   -0.7881 C   0  0  0  0  0  0  0  0  0  0  0  0
   -1.1008   -0.1141    0.1358 C   0  0  0  0  0  0  0  0  0  0  0  0
    1.3855   -2.7934    0.0497 C   0  0  0  0  0  0  0  0  0  0  0  0
    1.1541   -1.4418    0.2179 C   0  0  0  0  0  0  0  0  0  0  0  0
   -2.4821   -0.2563   -0.0550 C   0  0  0  0  0  0  0  0  0  0  0  0
   -0.2569   -1.2421    0.0756 C   0  0  0  0  0  0  0  0  0  0  0  0
   -0.8327   -2.4860   -0.1768 C   0  0  0  0  0  0  0  0  0  0  0  0
    0.1861   -3.4091   -0.1870 N   0  0  0  0  0  0  0  0  0  0  0  0
    3.6380    1.4048   -0.6416 N   0  0  0  0  0  0  0  0  0  0  0  0
   -3.1850    0.9164    0.0293 O   0  0  0  0  0  0  0  0  0  0  0  0
   -6.2409    2.2519   -0.1837 H   0  0  0  0  0  0  0  0  0  0  0  0
   -4.9305    2.6671    0.9474 H   0  0  0  0  0  0  0  0  0  0  0  0
   -4.7009    2.9173   -0.7792 H   0  0  0  0  0  0  0  0  0  0  0  0
    5.2888    0.0872   -0.7002 H   0  0  0  0  0  0  0  0  0  0  0  0
    4.8315    0.6036    0.9383 H   0  0  0  0  0  0  0  0  0  0  0  0
    5.6652    1.7155   -0.1597 H   0  0  0  0  0  0  0  0  0  0  0  0
    2.9720    2.2895    1.1854 H   0  0  0  0  0  0  0  0  0  0  0  0
    2.1922    2.9053   -0.2885 H   0  0  0  0  0  0  0  0  0  0  0  0
    3.8436    3.3714    0.0865 H   0  0  0  0  0  0  0  0  0  0  0  0
   -4.8208    0.4617   -1.1703 H   0  0  0  0  0  0  0  0  0  0  0  0
   -5.0551    0.2061    0.5934 H   0  0  0  0  0  0  0  0  0  0  0  0
   -4.0880   -1.6569   -0.4556 H   0  0  0  0  0  0  0  0  0  0  0  0
   -2.6366   -3.6330   -0.5656 H   0  0  0  0  0  0  0  0  0  0  0  0
    3.0434   -0.8604    0.9895 H   0  0  0  0  0  0  0  0  0  0  0  0
    1.7677    0.3289    1.2117 H   0  0  0  0  0  0  0  0  0  0  0  0
    3.0380   -0.4133   -1.4913 H   0  0  0  0  0  0  0  0  0  0  0  0
    1.7609    0.7489   -1.2987 H   0  0  0  0  0  0  0  0  0  0  0  0
   -0.6838    0.8700    0.3287 H   0  0  0  0  0  0  0  0  0  0  0  0
    2.3023   -3.3673    0.0777 H   0  0  0  0  0  0  0  0  0  0  0  0
    0.0610   -4.3988   -0.3473 H   0  0  0  0  0  0  0  0  0  0  0  0
  1  4  1  0
  2 16  1  0
  3 16  1  0
  4 17  1  0
  5  6  2  0
  5 12  1  0
  6 14  1  0
  7  8  1  0
  7 11  1  0
  8 16  1  0
  9 12  2  0
  9 13  1  0
 10 11  2  0
 10 15  1  0
 11 13  1  0
 12 17  1  0
 13 14  2  0
 14 15  1  0
  1 18  1  0
  1 19  1  0
  1 20  1  0
  2 21  1  0
  2 22  1  0
  2 23  1  0
  3 24  1  0
  3 25  1  0
  3 26  1  0
  4 27  1  0
  4 28  1  0
  5 29  1  0
  6 30  1  0
  7 31  1  0
  7 32  1  0
  8 33  1  0
  8 34  1  0
  9 35  1  0
 10 36  1  0
 15 37  1  0
M  END
