
     RDKit          3D

 42 43  0  0  0  0  0  0  0  0999 V2000
    2.7042    2.4827    1.0359 C   0  0  0  0  0  0  0  0  0  0  0  0
    3.5797   -0.6127    2.1400 C   0  0  0  0  0  0  0  0  0  0  0  0
    2.8559    1.3864   -0.0114 C   0  0  0  0  0  0  0  0  0  0  0  0
    2.8283   -0.9070    0.8456 C   0  0  0  0  0  0  0  0  0  0  0  0
   -4.3560   -1.9967   -0.3938 C   0  0  0  0  0  0  0  0  0  0  0  0
   -4.2300   -1.6045   -1.7315 C   0  0  0  0  0  0  0  0  0  0  0  0
   -3.3504   -1.7296    0.5317 C   0  0  0  0  0  0  0  0  0  0  0  0
    0.1960    0.7455   -1.3491 C   0  0  0  0  0  0  0  0  0  0  0  0
    1.2574   -0.2594   -0.8607 C   0  0  0  0  0  0  0  0  0  0  0  0
   -1.4611    0.1857   -3.2349 C   0  0  0  0  0  0  0  0  0  0  0  0
   -1.0380    0.1131   -1.9218 C   0  0  0  0  0  0  0  0  0  0  0  0
   -3.0641   -0.9237   -2.1069 C   0  0  0  0  0  0  0  0  0  0  0  0
   -2.2010   -1.0436    0.1348 C   0  0  0  0  0  0  0  0  0  0  0  0
   -2.0447   -0.6200   -1.2035 C   0  0  0  0  0  0  0  0  0  0  0  0
   -2.6740   -0.4419   -3.3344 N   0  0  0  0  0  0  0  0  0  0  0  0
    2.0089    0.2235    0.3371 N   0  0  0  0  0  0  0  0  0  0  0  0
    0.2319    0.4219    2.6504 O   0  0  0  0  0  0  0  0  0  0  0  0
   -1.6007    1.6217    1.4889 O   0  0  0  0  0  0  0  0  0  0  0  0
   -2.2434   -0.0859    3.3061 O   0  0  0  0  0  0  0  0  0  0  0  0
   -1.1819   -0.8604    1.0290 O   0  0  0  0  0  0  0  0  0  0  0  0
   -1.2887    0.2238    2.2016 P   0  0  0  0  0  5  0  0  0  0  0  0
    1.6649    2.8229    1.0993 H   0  0  0  0  0  0  0  0  0  0  0  0
    3.3217    3.3457    0.7658 H   0  0  0  0  0  0  0  0  0  0  0  0
    3.0146    2.1494    2.0300 H   0  0  0  0  0  0  0  0  0  0  0  0
    4.0605   -1.5268    2.5045 H   0  0  0  0  0  0  0  0  0  0  0  0
    4.3664    0.1334    1.9960 H   0  0  0  0  0  0  0  0  0  0  0  0
    2.9027   -0.2600    2.9239 H   0  0  0  0  0  0  0  0  0  0  0  0
    3.9115    1.1096   -0.1224 H   0  0  0  0  0  0  0  0  0  0  0  0
    2.5725    1.8234   -0.9756 H   0  0  0  0  0  0  0  0  0  0  0  0
    3.5420   -1.2427    0.0821 H   0  0  0  0  0  0  0  0  0  0  0  0
    2.1625   -1.7539    1.0553 H   0  0  0  0  0  0  0  0  0  0  0  0
   -5.2471   -2.5340   -0.0757 H   0  0  0  0  0  0  0  0  0  0  0  0
   -5.0119   -1.8293   -2.4502 H   0  0  0  0  0  0  0  0  0  0  0  0
   -3.4561   -2.0710    1.5591 H   0  0  0  0  0  0  0  0  0  0  0  0
    0.6448    1.4102   -2.0983 H   0  0  0  0  0  0  0  0  0  0  0  0
   -0.1163    1.3983   -0.5273 H   0  0  0  0  0  0  0  0  0  0  0  0
    0.7689   -1.2073   -0.6066 H   0  0  0  0  0  0  0  0  0  0  0  0
    1.9486   -0.4900   -1.6831 H   0  0  0  0  0  0  0  0  0  0  0  0
   -1.0122    0.6515   -4.1024 H   0  0  0  0  0  0  0  0  0  0  0  0
   -3.2178   -0.5268   -4.1821 H   0  0  0  0  0  0  0  0  0  0  0  0
    0.8144    0.5349    1.8632 H   0  0  0  0  0  0  0  0  0  0  0  0
   -2.5627    1.7434    1.3915 H   0  0  0  0  0  0  0  0  0  0  0  0
  1  3  1  0
  2  4  1  0
  3 16  1  0
  4 16  1  0
  5  6  2  0
  5  7  1  0
  6 12  1  0
  7 13  2  0
  8  9  1  0
  8 11  1  0
  9 16  1  0
 10 11  2  0
 10 15  1  0
 11 14  1  0
 12 14  2  0
 12 15  1  0
 13 14  1  0
 13 20  1  0
 17 21  1  0
 18 21  1  0
 19 21  2  0
 20 21  1  0
  1 22  1  0
  1 23  1  0
  1 24  1  0
  2 25  1  0
  2 26  1  0
  2 27  1  0
  3 28  1  0
  3 29  1  0
  4 30  1  0
  4 31  1  0
  5 32  1  0
  6 33  1  0
  7 34  1  0
  8 35  1  0
  8 36  1  0
  9 37  1  0
  9 38  1  0
 10 39  1  0
 15 40  1  0
 17 41  1  0
 18 42  1  0
M  END
