
     RDKit          3D

 37 38  0  0  0  0  0  0  0  0999 V2000
   -1.4754    2.7670    0.5450 C   0  0  0  0  0  0  0  0  0  0  0  0
   -2.3581   -2.6170    1.0393 C   0  0  0  0  0  0  0  0  0  0  0  0
   -0.6300    2.6168   -0.7065 C   0  0  0  0  0  0  0  0  0  0  0  0
    3.4468    0.6048   -0.5040 C   0  0  0  0  0  0  0  0  0  0  0  0
    2.1399    0.4702   -0.9818 C   0  0  0  0  0  0  0  0  0  0  0  0
    3.7241    0.3646    0.8367 C   0  0  0  0  0  0  0  0  0  0  0  0
   -0.7792    1.2768   -1.4428 C   0  0  0  0  0  0  0  0  0  0  0  0
   -0.4021   -1.2254   -1.6787 C   0  0  0  0  0  0  0  0  0  0  0  0
   -0.8341   -2.4373   -0.8503 C   0  0  0  0  0  0  0  0  0  0  0  0
    1.3854   -0.1455    1.2179 C   0  0  0  0  0  0  0  0  0  0  0  0
   -1.4587   -0.4794    0.2910 C   0  0  0  0  0  0  0  0  0  0  0  0
    1.0766    0.1003   -0.1307 C   0  0  0  0  0  0  0  0  0  0  0  0
    2.6946   -0.0142    1.6848 C   0  0  0  0  0  0  0  0  0  0  0  0
   -0.3532   -0.0247   -0.6965 C   0  0  0  0  0  0  0  0  0  0  0  0
   -1.2224   -1.9172    0.4611 N   0  0  0  0  0  0  0  0  0  0  0  0
    3.0064   -0.2589    2.9909 O   0  0  0  0  0  0  0  0  0  0  0  0
   -2.5107    2.4611    0.3674 H   0  0  0  0  0  0  0  0  0  0  0  0
   -1.4837    3.8140    0.8659 H   0  0  0  0  0  0  0  0  0  0  0  0
   -1.0668    2.1833    1.3733 H   0  0  0  0  0  0  0  0  0  0  0  0
   -3.2573   -2.5368    0.4180 H   0  0  0  0  0  0  0  0  0  0  0  0
   -2.1251   -3.6790    1.1721 H   0  0  0  0  0  0  0  0  0  0  0  0
   -2.5897   -2.2144    2.0313 H   0  0  0  0  0  0  0  0  0  0  0  0
   -0.9237    3.4092   -1.4068 H   0  0  0  0  0  0  0  0  0  0  0  0
    0.4195    2.8101   -0.4601 H   0  0  0  0  0  0  0  0  0  0  0  0
    4.2464    0.8942   -1.1802 H   0  0  0  0  0  0  0  0  0  0  0  0
    1.9608    0.6587   -2.0381 H   0  0  0  0  0  0  0  0  0  0  0  0
    4.7361    0.4631    1.2169 H   0  0  0  0  0  0  0  0  0  0  0  0
   -1.8240    1.1822   -1.7697 H   0  0  0  0  0  0  0  0  0  0  0  0
   -0.2021    1.3591   -2.3740 H   0  0  0  0  0  0  0  0  0  0  0  0
   -1.1629   -1.0500   -2.4512 H   0  0  0  0  0  0  0  0  0  0  0  0
    0.5421   -1.4181   -2.1988 H   0  0  0  0  0  0  0  0  0  0  0  0
   -0.0063   -3.1448   -0.7342 H   0  0  0  0  0  0  0  0  0  0  0  0
   -1.6513   -2.9567   -1.3656 H   0  0  0  0  0  0  0  0  0  0  0  0
    0.6123   -0.4554    1.9126 H   0  0  0  0  0  0  0  0  0  0  0  0
   -1.4287    0.0328    1.2554 H   0  0  0  0  0  0  0  0  0  0  0  0
   -2.4524   -0.3081   -0.1456 H   0  0  0  0  0  0  0  0  0  0  0  0
    2.2071   -0.5854    3.4360 H   0  0  0  0  0  0  0  0  0  0  0  0
  1  3  1  0
  2 15  1  0
  3  7  1  0
  4  5  2  0
  4  6  1  0
  5 12  1  0
  6 13  2  0
  7 14  1  0
  8  9  1  0
  8 14  1  0
  9 15  1  0
 10 12  2  0
 10 13  1  0
 11 14  1  0
 11 15  1  0
 12 14  1  0
 13 16  1  0
  1 17  1  0
  1 18  1  0
  1 19  1  0
  2 20  1  0
  2 21  1  0
  2 22  1  0
  3 23  1  0
  3 24  1  0
  4 25  1  0
  5 26  1  0
  6 27  1  0
  7 28  1  0
  7 29  1  0
  8 30  1  0
  8 31  1  0
  9 32  1  0
  9 33  1  0
 10 34  1  0
 11 35  1  0
 11 36  1  0
 16 37  1  0
M  END
