
     RDKit          3D

 38 38  0  0  0  0  0  0  0  0999 V2000
   -4.1058    0.9862    1.3079 C   0  0  0  0  0  0  0  0  0  0  0  0
   -0.8210   -1.0971   -1.4145 C   0  0  0  0  0  0  0  0  0  0  0  0
   -0.3614   -2.5236    0.5677 C   0  0  0  0  0  0  0  0  0  0  0  0
   -3.7679    0.6461   -0.1362 C   0  0  0  0  0  0  0  0  0  0  0  0
    5.6323    1.1253   -0.1946 C   0  0  0  0  0  0  0  0  0  0  0  0
    4.8806    2.0456   -0.9236 C   0  0  0  0  0  0  0  0  0  0  0  0
    4.9930    0.1691    0.5940 C   0  0  0  0  0  0  0  0  0  0  0  0
    3.4860    2.0106   -0.8644 C   0  0  0  0  0  0  0  0  0  0  0  0
    3.5977    0.1308    0.6560 C   0  0  0  0  0  0  0  0  0  0  0  0
   -3.5616   -0.8498   -0.3833 C   0  0  0  0  0  0  0  0  0  0  0  0
   -0.5481   -0.0353    0.8895 C   0  0  0  0  0  0  0  0  0  0  0  0
    2.8350    1.0534   -0.0738 C   0  0  0  0  0  0  0  0  0  0  0  0
    1.3467    1.0585   -0.0485 C   0  0  0  0  0  0  0  0  0  0  0  0
   -1.1019   -1.2521    0.0913 C   0  0  0  0  0  0  0  0  0  0  0  0
   -2.5248   -1.5147    0.3983 N   0  0  0  0  0  0  0  0  0  0  0  0
    0.6658    1.8402   -0.6925 O   0  0  0  0  0  0  0  0  0  0  0  0
    0.8832    0.0823    0.7695 O   0  0  0  0  0  0  0  0  0  0  0  0
   -3.2769    0.7556    1.9829 H   0  0  0  0  0  0  0  0  0  0  0  0
   -4.3219    2.0554    1.4006 H   0  0  0  0  0  0  0  0  0  0  0  0
   -4.9885    0.4330    1.6442 H   0  0  0  0  0  0  0  0  0  0  0  0
    0.2547   -1.0888   -1.6231 H   0  0  0  0  0  0  0  0  0  0  0  0
   -1.2371   -0.1648   -1.8108 H   0  0  0  0  0  0  0  0  0  0  0  0
   -1.2460   -1.9303   -1.9866 H   0  0  0  0  0  0  0  0  0  0  0  0
   -0.4808   -2.6764    1.6471 H   0  0  0  0  0  0  0  0  0  0  0  0
    0.7134   -2.4677    0.3602 H   0  0  0  0  0  0  0  0  0  0  0  0
   -0.7409   -3.4193    0.0606 H   0  0  0  0  0  0  0  0  0  0  0  0
   -4.5986    0.9830   -0.7690 H   0  0  0  0  0  0  0  0  0  0  0  0
   -2.8938    1.2179   -0.4609 H   0  0  0  0  0  0  0  0  0  0  0  0
    6.7184    1.1529   -0.2414 H   0  0  0  0  0  0  0  0  0  0  0  0
    5.3791    2.7907   -1.5388 H   0  0  0  0  0  0  0  0  0  0  0  0
    5.5815   -0.5482    1.1611 H   0  0  0  0  0  0  0  0  0  0  0  0
    2.9084    2.7333   -1.4381 H   0  0  0  0  0  0  0  0  0  0  0  0
    3.1210   -0.6240    1.2763 H   0  0  0  0  0  0  0  0  0  0  0  0
   -4.5051   -1.3575   -0.1449 H   0  0  0  0  0  0  0  0  0  0  0  0
   -3.4189   -1.0284   -1.4546 H   0  0  0  0  0  0  0  0  0  0  0  0
   -0.7479   -0.1733    1.9593 H   0  0  0  0  0  0  0  0  0  0  0  0
   -1.0433    0.8975    0.6072 H   0  0  0  0  0  0  0  0  0  0  0  0
   -2.7046   -1.4161    1.3961 H   0  0  0  0  0  0  0  0  0  0  0  0
  1  4  1  0
  2 14  1  0
  3 14  1  0
  4 10  1  0
  5  6  2  0
  5  7  1  0
  6  8  1  0
  7  9  2  0
  8 12  2  0
  9 12  1  0
 10 15  1  0
 11 14  1  0
 11 17  1  0
 12 13  1  0
 13 16  2  0
 13 17  1  0
 14 15  1  0
  1 18  1  0
  1 19  1  0
  1 20  1  0
  2 21  1  0
  2 22  1  0
  2 23  1  0
  3 24  1  0
  3 25  1  0
  3 26  1  0
  4 27  1  0
  4 28  1  0
  5 29  1  0
  6 30  1  0
  7 31  1  0
  8 32  1  0
  9 33  1  0
 10 34  1  0
 10 35  1  0
 11 36  1  0
 11 37  1  0
 15 38  1  0
M  END
