
     RDKit          3D

 39 40  0  0  0  0  0  0  0  0999 V2000
    4.4578   -0.7045    0.4361 C   0  0  0  0  0  0  0  0  0  0  0  0
    3.4045   -1.7363    0.7936 C   0  0  0  0  0  0  0  0  0  0  0  0
    0.9320    4.1734    0.3745 C   0  0  0  0  0  0  0  0  0  0  0  0
    0.8015    3.4976    1.5853 C   0  0  0  0  0  0  0  0  0  0  0  0
    0.7912    3.4809   -0.8259 C   0  0  0  0  0  0  0  0  0  0  0  0
   -2.6080   -2.5268   -1.0053 C   0  0  0  0  0  0  0  0  0  0  0  0
   -3.8193   -1.6505   -0.7128 C   0  0  0  0  0  0  0  0  0  0  0  0
    0.5280    2.1286    1.5968 C   0  0  0  0  0  0  0  0  0  0  0  0
    0.5178    2.1119   -0.8172 C   0  0  0  0  0  0  0  0  0  0  0  0
   -1.3927   -2.0577   -0.2077 C   0  0  0  0  0  0  0  0  0  0  0  0
   -3.4798   -0.1748   -0.8922 C   0  0  0  0  0  0  0  0  0  0  0  0
    0.3759    1.4188    0.3949 C   0  0  0  0  0  0  0  0  0  0  0  0
   -1.1164   -0.5512   -0.4192 C   0  0  0  0  0  0  0  0  0  0  0  0
    0.1072   -0.0821    0.4290 C   0  0  0  0  0  0  0  0  0  0  0  0
    1.3644   -0.8281   -0.0091 C   0  0  0  0  0  0  0  0  0  0  0  0
   -2.3350    0.2173   -0.0718 N   0  0  0  0  0  0  0  0  0  0  0  0
    1.6342   -1.1371   -1.1632 O   0  0  0  0  0  0  0  0  0  0  0  0
    2.1551   -1.0892    1.0739 O   0  0  0  0  0  0  0  0  0  0  0  0
    4.5534    0.0394    1.2339 H   0  0  0  0  0  0  0  0  0  0  0  0
    4.1835   -0.1612   -0.4738 H   0  0  0  0  0  0  0  0  0  0  0  0
    5.4296   -1.1807    0.2788 H   0  0  0  0  0  0  0  0  0  0  0  0
    3.7021   -2.2652    1.7049 H   0  0  0  0  0  0  0  0  0  0  0  0
    3.2953   -2.4900    0.0055 H   0  0  0  0  0  0  0  0  0  0  0  0
    1.1433    5.2392    0.3655 H   0  0  0  0  0  0  0  0  0  0  0  0
    0.9128    4.0367    2.5223 H   0  0  0  0  0  0  0  0  0  0  0  0
    0.8939    4.0058   -1.7720 H   0  0  0  0  0  0  0  0  0  0  0  0
   -2.3774   -2.4866   -2.0770 H   0  0  0  0  0  0  0  0  0  0  0  0
   -2.8341   -3.5714   -0.7642 H   0  0  0  0  0  0  0  0  0  0  0  0
   -4.6460   -1.9260   -1.3771 H   0  0  0  0  0  0  0  0  0  0  0  0
   -4.1606   -1.8290    0.3147 H   0  0  0  0  0  0  0  0  0  0  0  0
    0.4348    1.6202    2.5538 H   0  0  0  0  0  0  0  0  0  0  0  0
    0.4181    1.5917   -1.7676 H   0  0  0  0  0  0  0  0  0  0  0  0
   -0.5280   -2.6580   -0.5108 H   0  0  0  0  0  0  0  0  0  0  0  0
   -1.5611   -2.2607    0.8582 H   0  0  0  0  0  0  0  0  0  0  0  0
   -4.3442    0.4351   -0.6076 H   0  0  0  0  0  0  0  0  0  0  0  0
   -3.2758    0.0459   -1.9469 H   0  0  0  0  0  0  0  0  0  0  0  0
   -0.8982   -0.3834   -1.4826 H   0  0  0  0  0  0  0  0  0  0  0  0
   -0.1012   -0.3770    1.4681 H   0  0  0  0  0  0  0  0  0  0  0  0
   -2.5589    0.0847    0.9140 H   0  0  0  0  0  0  0  0  0  0  0  0
  1  2  1  0
  2 18  1  0
  3  4  2  0
  3  5  1  0
  4  8  1  0
  5  9  2  0
  6  7  1  0
  6 10  1  0
  7 11  1  0
  8 12  2  0
  9 12  1  0
 10 13  1  0
 11 16  1  0
 12 14  1  0
 13 14  1  0
 13 16  1  0
 14 15  1  0
 15 17  2  0
 15 18  1  0
  1 19  1  0
  1 20  1  0
  1 21  1  0
  2 22  1  0
  2 23  1  0
  3 24  1  0
  4 25  1  0
  5 26  1  0
  6 27  1  0
  6 28  1  0
  7 29  1  0
  7 30  1  0
  8 31  1  0
  9 32  1  0
 10 33  1  0
 10 34  1  0
 11 35  1  0
 11 36  1  0
 13 37  1  0
 14 38  1  0
 16 39  1  0
M  END
