
     RDKit          3D

 30 32  0  0  0  0  0  0  0  0999 V2000
    4.2604    0.4630    0.3066 C   0  0  0  0  0  0  0  0  0  0  0  0
    3.2568    1.3710    0.6446 C   0  0  0  0  0  0  0  0  0  0  0  0
    3.9275   -0.8316   -0.0909 C   0  0  0  0  0  0  0  0  0  0  0  0
    1.9152    0.9890    0.5773 C   0  0  0  0  0  0  0  0  0  0  0  0
    2.5881   -1.2180   -0.1596 C   0  0  0  0  0  0  0  0  0  0  0  0
   -2.7038    2.1375   -1.3401 C   0  0  0  0  0  0  0  0  0  0  0  0
   -3.0104    1.3536   -0.2256 C   0  0  0  0  0  0  0  0  0  0  0  0
   -0.5733    1.0159   -1.5272 C   0  0  0  0  0  0  0  0  0  0  0  0
   -1.5062   -2.4223    0.4097 C   0  0  0  0  0  0  0  0  0  0  0  0
    1.5765   -0.3044    0.1595 C   0  0  0  0  0  0  0  0  0  0  0  0
   -1.4878    1.9586   -1.9897 C   0  0  0  0  0  0  0  0  0  0  0  0
   -0.8741    0.2434   -0.3912 C   0  0  0  0  0  0  0  0  0  0  0  0
   -2.1160    0.3869    0.2559 C   0  0  0  0  0  0  0  0  0  0  0  0
   -2.2782   -1.6115    1.4178 C   0  0  0  0  0  0  0  0  0  0  0  0
    0.1466   -0.7434    0.0779 C   0  0  0  0  0  0  0  0  0  0  0  0
   -1.0720    3.0032   -3.5084 Br  0  0  0  0  0  0  0  0  0  0  0  0
   -0.1148   -1.9658    0.4111 N   0  0  0  0  0  0  0  0  0  0  0  0
   -2.5440   -0.3490    1.3754 N   0  0  0  0  0  0  0  0  0  0  0  0
   -2.7294   -2.2961    2.4779 O   0  0  0  0  0  0  0  0  0  0  0  0
    5.3045    0.7609    0.3643 H   0  0  0  0  0  0  0  0  0  0  0  0
    3.5204    2.3743    0.9702 H   0  0  0  0  0  0  0  0  0  0  0  0
    4.7102   -1.5434   -0.3411 H   0  0  0  0  0  0  0  0  0  0  0  0
    1.1498    1.7022    0.8712 H   0  0  0  0  0  0  0  0  0  0  0  0
    2.3350   -2.2319   -0.4611 H   0  0  0  0  0  0  0  0  0  0  0  0
   -3.4220    2.8742   -1.6911 H   0  0  0  0  0  0  0  0  0  0  0  0
   -3.9663    1.4897    0.2768 H   0  0  0  0  0  0  0  0  0  0  0  0
    0.3690    0.8778   -2.0524 H   0  0  0  0  0  0  0  0  0  0  0  0
   -1.9649   -2.3482   -0.5822 H   0  0  0  0  0  0  0  0  0  0  0  0
   -1.5306   -3.4780    0.6994 H   0  0  0  0  0  0  0  0  0  0  0  0
   -3.1664   -1.6576    3.0651 H   0  0  0  0  0  0  0  0  0  0  0  0
  1  2  2  0
  1  3  1  0
  2  4  1  0
  3  5  2  0
  4 10  2  0
  5 10  1  0
  6  7  2  0
  6 11  1  0
  7 13  1  0
  8 11  2  0
  8 12  1  0
  9 14  1  0
  9 17  1  0
 10 15  1  0
 11 16  1  0
 12 13  2  0
 12 15  1  0
 13 18  1  0
 14 18  2  0
 14 19  1  0
 15 17  2  0
  1 20  1  0
  2 21  1  0
  3 22  1  0
  4 23  1  0
  5 24  1  0
  6 25  1  0
  7 26  1  0
  8 27  1  0
  9 28  1  0
  9 29  1  0
 19 30  1  0
M  END
