
     RDKit          3D

 31 33  0  0  0  0  0  0  0  0999 V2000
    4.0905   -1.0234    0.6567 C   0  0  0  0  0  0  0  0  0  0  0  0
    3.6337   -1.4191   -0.6010 C   0  0  0  0  0  0  0  0  0  0  0  0
    3.1961   -0.5124    1.5978 C   0  0  0  0  0  0  0  0  0  0  0  0
    2.2810   -1.3019   -0.9227 C   0  0  0  0  0  0  0  0  0  0  0  0
    1.8420   -0.3940    1.2824 C   0  0  0  0  0  0  0  0  0  0  0  0
   -1.6640    3.3418    0.0897 C   0  0  0  0  0  0  0  0  0  0  0  0
   -2.4185    2.2463    0.5144 C   0  0  0  0  0  0  0  0  0  0  0  0
    0.0995    1.8445   -0.6028 C   0  0  0  0  0  0  0  0  0  0  0  0
   -2.1977   -1.5350   -1.0802 C   0  0  0  0  0  0  0  0  0  0  0  0
    1.3858   -0.7920    0.0213 C   0  0  0  0  0  0  0  0  0  0  0  0
   -0.4088    3.1345   -0.4703 C   0  0  0  0  0  0  0  0  0  0  0  0
   -0.6564    0.7416   -0.1710 C   0  0  0  0  0  0  0  0  0  0  0  0
   -1.9381    0.9360    0.3822 C   0  0  0  0  0  0  0  0  0  0  0  0
   -2.8950   -1.1717    0.1782 C   0  0  0  0  0  0  0  0  0  0  0  0
   -0.0487   -0.6113   -0.3159 C   0  0  0  0  0  0  0  0  0  0  0  0
    0.5223    4.4796   -1.0007 Cl  0  0  0  0  0  0  0  0  0  0  0  0
   -2.7821   -0.0829    0.8565 N   0  0  0  0  0  0  0  0  0  0  0  0
   -0.7721   -1.6414   -0.7326 N   0  0  0  0  0  4  0  0  0  0  0  0
   -3.7512   -2.0919    0.6386 O   0  0  0  0  0  0  0  0  0  0  0  0
   -0.2467   -2.7999   -0.8647 O   0  0  0  0  0  1  0  0  0  0  0  0
    5.1443   -1.1206    0.9058 H   0  0  0  0  0  0  0  0  0  0  0  0
    4.3303   -1.8259   -1.3296 H   0  0  0  0  0  0  0  0  0  0  0  0
    3.5539   -0.2111    2.5790 H   0  0  0  0  0  0  0  0  0  0  0  0
    1.9346   -1.6192   -1.9027 H   0  0  0  0  0  0  0  0  0  0  0  0
    1.1536   -0.0021    2.0262 H   0  0  0  0  0  0  0  0  0  0  0  0
   -2.0621    4.3471    0.2013 H   0  0  0  0  0  0  0  0  0  0  0  0
   -3.3987    2.4128    0.9571 H   0  0  0  0  0  0  0  0  0  0  0  0
    1.0837    1.7057   -1.0446 H   0  0  0  0  0  0  0  0  0  0  0  0
   -2.5486   -2.5000   -1.4586 H   0  0  0  0  0  0  0  0  0  0  0  0
   -2.3317   -0.7788   -1.8580 H   0  0  0  0  0  0  0  0  0  0  0  0
   -4.1312   -1.7552    1.4683 H   0  0  0  0  0  0  0  0  0  0  0  0
  1  2  2  0
  1  3  1  0
  2  4  1  0
  3  5  2  0
  4 10  2  0
  5 10  1  0
  6  7  2  0
  6 11  1  0
  7 13  1  0
  8 11  2  0
  8 12  1  0
  9 14  1  0
  9 18  1  0
 10 15  1  0
 11 16  1  0
 12 13  2  0
 12 15  1  0
 13 17  1  0
 14 17  2  0
 14 19  1  0
 15 18  2  0
 18 20  1  0
  1 21  1  0
  2 22  1  0
  3 23  1  0
  4 24  1  0
  5 25  1  0
  6 26  1  0
  7 27  1  0
  8 28  1  0
  9 29  1  0
  9 30  1  0
 19 31  1  0
M  CHG  2  18   1  20  -1
M  END
