
     RDKit          3D

 36 38  0  0  0  0  0  0  0  0999 V2000
    4.7987   -1.0334    1.2006 C   0  0  0  0  0  0  0  0  0  0  0  0
   -0.1604   -2.6572   -0.5849 C   0  0  0  0  0  0  0  0  0  0  0  0
    4.1167   -1.4513   -0.0883 C   0  0  0  0  0  0  0  0  0  0  0  0
   -4.1118    2.5857    0.0206 C   0  0  0  0  0  0  0  0  0  0  0  0
   -4.7388    1.3878    0.3537 C   0  0  0  0  0  0  0  0  0  0  0  0
   -2.7798    2.5871   -0.3883 C   0  0  0  0  0  0  0  0  0  0  0  0
   -0.0314   -0.5067    0.6344 C   0  0  0  0  0  0  0  0  0  0  0  0
   -0.0287    2.4028   -1.5085 C   0  0  0  0  0  0  0  0  0  0  0  0
   -4.0501    0.1727    0.2393 C   0  0  0  0  0  0  0  0  0  0  0  0
   -2.0654    1.3793   -0.4756 C   0  0  0  0  0  0  0  0  0  0  0  0
    0.3006    0.5756   -0.3179 C   0  0  0  0  0  0  0  0  0  0  0  0
   -2.7139    0.1510   -0.2045 C   0  0  0  0  0  0  0  0  0  0  0  0
    1.4944    1.0114   -0.8824 C   0  0  0  0  0  0  0  0  0  0  0  0
   -2.0870   -1.1480   -0.5869 C   0  0  0  0  0  0  0  0  0  0  0  0
    2.8400    0.4297   -0.7761 C   0  0  0  0  0  0  0  0  0  0  0  0
   -5.1079   -1.5421    0.8609 I   0  0  0  0  0  0  0  0  0  0  0  0
    1.2597    2.1750   -1.5965 N   0  0  0  0  0  0  0  0  0  0  0  0
   -0.8334   -1.4713   -0.0804 N   0  0  0  0  0  0  0  0  0  0  0  0
   -0.6791    1.4366   -0.7825 N   0  0  0  0  0  0  0  0  0  0  0  0
   -2.6876   -1.8623   -1.3861 O   0  0  0  0  0  0  0  0  0  0  0  0
    3.8557    0.9927   -1.1684 O   0  0  0  0  0  0  0  0  0  0  0  0
    2.8378   -0.8107   -0.2001 O   0  0  0  0  0  0  0  0  0  0  0  0
    4.9951    0.0434    1.2105 H   0  0  0  0  0  0  0  0  0  0  0  0
    5.7474   -1.5626    1.3268 H   0  0  0  0  0  0  0  0  0  0  0  0
    4.1571   -1.2477    2.0617 H   0  0  0  0  0  0  0  0  0  0  0  0
   -0.8753   -3.3861   -0.9763 H   0  0  0  0  0  0  0  0  0  0  0  0
    0.4052   -3.1238    0.2269 H   0  0  0  0  0  0  0  0  0  0  0  0
    0.5203   -2.3626   -1.3890 H   0  0  0  0  0  0  0  0  0  0  0  0
    4.7459   -1.2480   -0.9622 H   0  0  0  0  0  0  0  0  0  0  0  0
    3.9313   -2.5304   -0.0719 H   0  0  0  0  0  0  0  0  0  0  0  0
   -4.6572    3.5237    0.1046 H   0  0  0  0  0  0  0  0  0  0  0  0
   -5.7717    1.4150    0.6958 H   0  0  0  0  0  0  0  0  0  0  0  0
   -2.3131    3.5501   -0.5849 H   0  0  0  0  0  0  0  0  0  0  0  0
    0.8397   -0.9948    1.0765 H   0  0  0  0  0  0  0  0  0  0  0  0
   -0.6151   -0.1112    1.4748 H   0  0  0  0  0  0  0  0  0  0  0  0
   -0.5381    3.2306   -1.9836 H   0  0  0  0  0  0  0  0  0  0  0  0
  1  3  1  0
  2 18  1  0
  3 22  1  0
  4  5  2  0
  4  6  1  0
  5  9  1  0
  6 10  2  0
  7 11  1  0
  7 18  1  0
  8 17  2  0
  8 19  1  0
  9 12  2  0
  9 16  1  0
 10 12  1  0
 10 19  1  0
 11 13  2  0
 11 19  1  0
 12 14  1  0
 13 15  1  0
 13 17  1  0
 14 18  1  0
 14 20  2  0
 15 21  2  0
 15 22  1  0
  1 23  1  0
  1 24  1  0
  1 25  1  0
  2 26  1  0
  2 27  1  0
  2 28  1  0
  3 29  1  0
  3 30  1  0
  4 31  1  0
  5 32  1  0
  6 33  1  0
  7 34  1  0
  7 35  1  0
  8 36  1  0
M  END
