
     RDKit          3D

 33 34  0  0  0  0  0  0  0  0999 V2000
    6.5785    1.1104   -0.1653 C   0  0  0  0  0  0  0  0  0  0  0  0
   -6.5215    0.8430   -1.0569 C   0  0  0  0  0  0  0  0  0  0  0  0
    2.5768   -0.8885    1.5844 C   0  0  0  0  0  0  0  0  0  0  0  0
    2.4462    0.2554   -0.5295 C   0  0  0  0  0  0  0  0  0  0  0  0
    0.3909   -0.8235    0.4344 C   0  0  0  0  0  0  0  0  0  0  0  0
    3.9388   -0.5820    1.6596 C   0  0  0  0  0  0  0  0  0  0  0  0
    3.8117    0.5607   -0.4534 C   0  0  0  0  0  0  0  0  0  0  0  0
   -0.5743    0.0043    0.0003 C   0  0  0  0  0  0  0  0  0  0  0  0
   -2.9179    0.5342   -0.4893 C   0  0  0  0  0  0  0  0  0  0  0  0
   -4.6463   -1.0918   -0.1176 C   0  0  0  0  0  0  0  0  0  0  0  0
    1.8130   -0.4598    0.4943 C   0  0  0  0  0  0  0  0  0  0  0  0
    4.5634    0.1450    0.6448 C   0  0  0  0  0  0  0  0  0  0  0  0
   -1.9846   -0.3240   -0.0593 C   0  0  0  0  0  0  0  0  0  0  0  0
   -4.2997    0.1378   -0.5208 C   0  0  0  0  0  0  0  0  0  0  0  0
   -3.6266   -2.0422    0.3572 C   0  0  0  0  0  0  0  0  0  0  0  0
   -3.9614   -3.1642    0.7235 O   0  0  0  0  0  0  0  0  0  0  0  0
    5.8966    0.3751    0.8427 O   0  0  0  0  0  0  0  0  0  0  0  0
   -5.1287    1.1281   -0.9863 O   0  0  0  0  0  0  0  0  0  0  0  0
   -2.3269   -1.6265    0.3697 O   0  0  0  0  0  0  0  0  0  0  0  0
    6.5621    0.5776   -1.1218 H   0  0  0  0  0  0  0  0  0  0  0  0
    7.6240    1.2091    0.1425 H   0  0  0  0  0  0  0  0  0  0  0  0
    6.1647    2.1191   -0.2666 H   0  0  0  0  0  0  0  0  0  0  0  0
   -6.9276    0.6283   -0.0631 H   0  0  0  0  0  0  0  0  0  0  0  0
   -6.7168    0.0153   -1.7465 H   0  0  0  0  0  0  0  0  0  0  0  0
   -7.0280    1.7320   -1.4441 H   0  0  0  0  0  0  0  0  0  0  0  0
    2.1198   -1.4579    2.3906 H   0  0  0  0  0  0  0  0  0  0  0  0
    1.8888    0.5736   -1.4072 H   0  0  0  0  0  0  0  0  0  0  0  0
    0.1495   -1.8220    0.7931 H   0  0  0  0  0  0  0  0  0  0  0  0
    4.5177   -0.9155    2.5174 H   0  0  0  0  0  0  0  0  0  0  0  0
    4.2543    1.1181   -1.2719 H   0  0  0  0  0  0  0  0  0  0  0  0
   -0.3087    1.0088   -0.3243 H   0  0  0  0  0  0  0  0  0  0  0  0
   -2.6676    1.5372   -0.8205 H   0  0  0  0  0  0  0  0  0  0  0  0
   -5.6601   -1.4651   -0.1105 H   0  0  0  0  0  0  0  0  0  0  0  0
  1 17  1  0
  2 18  1  0
  3  6  2  0
  3 11  1  0
  4  7  1  0
  4 11  2  0
  5  8  2  3
  5 11  1  0
  6 12  1  0
  7 12  2  0
  8 13  1  0
  9 13  2  0
  9 14  1  0
 10 14  2  0
 10 15  1  0
 12 17  1  0
 13 19  1  0
 14 18  1  0
 15 16  2  0
 15 19  1  0
  1 20  1  0
  1 21  1  0
  1 22  1  0
  2 23  1  0
  2 24  1  0
  2 25  1  0
  3 26  1  0
  4 27  1  0
  5 28  1  0
  6 29  1  0
  7 30  1  0
  8 31  1  0
  9 32  1  0
 10 33  1  0
M  END
