
     RDKit          3D

 34 36  0  0  0  0  0  0  0  0999 V2000
    4.9611    1.4674    1.2674 C   0  0  0  0  0  0  0  0  0  0  0  0
   -0.3282    0.2241   -2.0259 C   0  0  0  0  0  0  0  0  0  0  0  0
   -2.4105   -1.0882   -1.6747 C   0  0  0  0  0  0  0  0  0  0  0  0
    0.8119   -0.1986   -1.4551 C   0  0  0  0  0  0  0  0  0  0  0  0
   -3.6735   -1.2546   -1.0975 C   0  0  0  0  0  0  0  0  0  0  0  0
   -2.1601    1.0836   -0.5958 C   0  0  0  0  0  0  0  0  0  0  0  0
    1.5582   -0.0315    0.9734 C   0  0  0  0  0  0  0  0  0  0  0  0
    3.7336   -0.8718    0.1930 C   0  0  0  0  0  0  0  0  0  0  0  0
   -5.2782    1.0381    1.0315 C   0  0  0  0  0  0  0  0  0  0  0  0
   -1.6542    0.0768   -1.4278 C   0  0  0  0  0  0  0  0  0  0  0  0
    0.9577   -0.9069   -0.1269 C   0  0  0  0  0  0  0  0  0  0  0  0
    3.0441    0.0958    0.8158 C   0  0  0  0  0  0  0  0  0  0  0  0
   -4.1436   -0.2457   -0.2853 C   0  0  0  0  0  0  0  0  0  0  0  0
   -3.4078    0.8905   -0.0413 C   0  0  0  0  0  0  0  0  0  0  0  0
    3.0767   -2.0925   -0.3017 C   0  0  0  0  0  0  0  0  0  0  0  0
    3.7534   -3.0471   -0.6638 O   0  0  0  0  0  0  0  0  0  0  0  0
    3.5558    1.2547    1.3541 O   0  0  0  0  0  0  0  0  0  0  0  0
   -5.3413   -0.2361    0.3579 O   0  0  0  0  0  0  0  0  0  0  0  0
   -4.0508    1.7566    0.7871 O   0  0  0  0  0  0  0  0  0  0  0  0
    1.7247   -2.1125   -0.3296 O   0  0  0  0  0  0  0  0  0  0  0  0
    5.2834    1.5252    0.2227 H   0  0  0  0  0  0  0  0  0  0  0  0
    5.1865    2.4257    1.7444 H   0  0  0  0  0  0  0  0  0  0  0  0
    5.5084    0.6854    1.8038 H   0  0  0  0  0  0  0  0  0  0  0  0
   -0.3043    0.7199   -2.9938 H   0  0  0  0  0  0  0  0  0  0  0  0
   -2.0110   -1.8717   -2.3162 H   0  0  0  0  0  0  0  0  0  0  0  0
    1.7349   -0.0184   -2.0033 H   0  0  0  0  0  0  0  0  0  0  0  0
   -4.2622   -2.1464   -1.2803 H   0  0  0  0  0  0  0  0  0  0  0  0
   -1.5985    1.9876   -0.3878 H   0  0  0  0  0  0  0  0  0  0  0  0
    1.0787    0.9549    0.9769 H   0  0  0  0  0  0  0  0  0  0  0  0
    1.3666   -0.4887    1.9527 H   0  0  0  0  0  0  0  0  0  0  0  0
    4.8066   -0.8553    0.0588 H   0  0  0  0  0  0  0  0  0  0  0  0
   -5.3765    0.8696    2.1101 H   0  0  0  0  0  0  0  0  0  0  0  0
   -6.1189    1.6553    0.6939 H   0  0  0  0  0  0  0  0  0  0  0  0
   -0.0226   -1.2452    0.2253 H   0  0  0  0  0  0  0  0  0  0  0  0
  1 17  1  0
  2  4  2  3
  2 10  1  0
  3  5  2  0
  3 10  1  0
  4 11  1  0
  5 13  1  0
  6 10  2  0
  6 14  1  0
  7 11  1  0
  7 12  1  0
  8 12  2  0
  8 15  1  0
  9 18  1  0
  9 19  1  0
 11 20  1  0
 12 17  1  0
 13 14  2  0
 13 18  1  0
 14 19  1  0
 15 16  2  0
 15 20  1  0
  1 21  1  0
  1 22  1  0
  1 23  1  0
  2 24  1  0
  3 25  1  0
  4 26  1  0
  5 27  1  0
  6 28  1  0
  7 29  1  0
  7 30  1  0
  8 31  1  0
  9 32  1  0
  9 33  1  0
 11 34  1  0
M  END
