
     RDKit          3D

 40 41  0  0  0  0  0  0  0  0999 V2000
   -2.2326   -4.0053   -0.4887 C   0  0  0  0  0  0  0  0  0  0  0  0
   -1.8822    4.4573    1.4878 C   0  0  0  0  0  0  0  0  0  0  0  0
   -2.6189   -2.7724    0.3128 C   0  0  0  0  0  0  0  0  0  0  0  0
   -1.2292    3.3073    0.7362 C   0  0  0  0  0  0  0  0  0  0  0  0
   -1.6863   -1.5974    0.0161 C   0  0  0  0  0  0  0  0  0  0  0  0
   -2.0770   -0.3584    0.8305 C   0  0  0  0  0  0  0  0  0  0  0  0
    1.2906    0.8695   -1.3054 C   0  0  0  0  0  0  0  0  0  0  0  0
    2.3271    0.5677   -2.1972 C   0  0  0  0  0  0  0  0  0  0  0  0
    2.3764   -0.4392    0.4436 C   0  0  0  0  0  0  0  0  0  0  0  0
    5.1499   -1.4074   -1.4912 C   0  0  0  0  0  0  0  0  0  0  0  0
    1.3058    0.3584    0.0100 C   0  0  0  0  0  0  0  0  0  0  0  0
   -1.2175    0.8725    0.4868 C   0  0  0  0  0  0  0  0  0  0  0  0
    3.3545   -0.2308   -1.7439 C   0  0  0  0  0  0  0  0  0  0  0  0
    3.3797   -0.7183   -0.4591 C   0  0  0  0  0  0  0  0  0  0  0  0
    0.2219    0.6526    0.9898 C   0  0  0  0  0  0  0  0  0  0  0  0
   -1.8023    2.0398    1.1862 N   0  0  0  0  0  0  0  0  0  0  0  0
    0.5010    0.6823    2.1902 O   0  0  0  0  0  0  0  0  0  0  0  0
    4.4363   -0.6207   -2.4686 O   0  0  0  0  0  0  0  0  0  0  0  0
    4.4805   -1.4778   -0.2150 O   0  0  0  0  0  0  0  0  0  0  0  0
   -1.2139   -4.3261   -0.2484 H   0  0  0  0  0  0  0  0  0  0  0  0
   -2.9118   -4.8330   -0.2618 H   0  0  0  0  0  0  0  0  0  0  0  0
   -2.2861   -3.8068   -1.5639 H   0  0  0  0  0  0  0  0  0  0  0  0
   -2.9639    4.4786    1.3176 H   0  0  0  0  0  0  0  0  0  0  0  0
   -1.7053    4.3784    2.5659 H   0  0  0  0  0  0  0  0  0  0  0  0
   -1.4689    5.4124    1.1479 H   0  0  0  0  0  0  0  0  0  0  0  0
   -2.5858   -3.0132    1.3817 H   0  0  0  0  0  0  0  0  0  0  0  0
   -3.6528   -2.4977    0.0735 H   0  0  0  0  0  0  0  0  0  0  0  0
   -1.4048    3.4405   -0.3372 H   0  0  0  0  0  0  0  0  0  0  0  0
   -0.1482    3.3389    0.9106 H   0  0  0  0  0  0  0  0  0  0  0  0
   -0.6566   -1.8909    0.2488 H   0  0  0  0  0  0  0  0  0  0  0  0
   -1.7238   -1.3611   -1.0542 H   0  0  0  0  0  0  0  0  0  0  0  0
   -1.9997   -0.5931    1.9004 H   0  0  0  0  0  0  0  0  0  0  0  0
   -3.1322   -0.1285    0.6308 H   0  0  0  0  0  0  0  0  0  0  0  0
    0.4966    1.5255   -1.6506 H   0  0  0  0  0  0  0  0  0  0  0  0
    2.3297    0.9555   -3.2103 H   0  0  0  0  0  0  0  0  0  0  0  0
    2.4191   -0.8303    1.4555 H   0  0  0  0  0  0  0  0  0  0  0  0
    6.1426   -0.9668   -1.3432 H   0  0  0  0  0  0  0  0  0  0  0  0
    5.2705   -2.4248   -1.8806 H   0  0  0  0  0  0  0  0  0  0  0  0
   -1.2681    1.0384   -0.5914 H   0  0  0  0  0  0  0  0  0  0  0  0
   -1.6139    1.9245    2.1879 H   0  0  0  0  0  0  0  0  0  0  0  0
  1  3  1  0
  2  4  1  0
  3  5  1  0
  4 16  1  0
  5  6  1  0
  6 12  1  0
  7  8  2  0
  7 11  1  0
  8 13  1  0
  9 11  2  0
  9 14  1  0
 10 18  1  0
 10 19  1  0
 11 15  1  0
 12 15  1  0
 12 16  1  0
 13 14  2  0
 13 18  1  0
 14 19  1  0
 15 17  2  0
  1 20  1  0
  1 21  1  0
  1 22  1  0
  2 23  1  0
  2 24  1  0
  2 25  1  0
  3 26  1  0
  3 27  1  0
  4 28  1  0
  4 29  1  0
  5 30  1  0
  5 31  1  0
  6 32  1  0
  6 33  1  0
  7 34  1  0
  8 35  1  0
  9 36  1  0
 10 37  1  0
 10 38  1  0
 12 39  1  0
 16 40  1  0
M  END
