
     RDKit          3D

 40 41  0  0  0  0  0  0  0  0999 V2000
    2.7571    2.4545   -0.4585 C   0  0  0  0  0  0  0  0  0  0  0  0
    1.3729   -4.1221   -0.8965 C   0  0  0  0  0  0  0  0  0  0  0  0
    3.4601    1.3034    0.2440 C   0  0  0  0  0  0  0  0  0  0  0  0
    0.4980   -3.0175   -1.4718 C   0  0  0  0  0  0  0  0  0  0  0  0
    2.4895    0.2904    0.8551 C   0  0  0  0  0  0  0  0  0  0  0  0
   -2.2159   -0.4761    1.1554 C   0  0  0  0  0  0  0  0  0  0  0  0
   -2.8998    0.4405    1.9629 C   0  0  0  0  0  0  0  0  0  0  0  0
    1.7352   -0.5263   -0.1953 C   0  0  0  0  0  0  0  0  0  0  0  0
   -2.1952    1.1170   -0.6912 C   0  0  0  0  0  0  0  0  0  0  0  0
   -3.8073    3.7107    1.0492 C   0  0  0  0  0  0  0  0  0  0  0  0
   -1.8564   -0.1397   -0.1666 C   0  0  0  0  0  0  0  0  0  0  0  0
   -0.1472   -2.1163   -0.4040 C   0  0  0  0  0  0  0  0  0  0  0  0
   -3.1978    1.6710    1.4227 C   0  0  0  0  0  0  0  0  0  0  0  0
   -2.8524    2.0014    0.1335 C   0  0  0  0  0  0  0  0  0  0  0  0
   -1.1018   -1.0841   -1.0455 C   0  0  0  0  0  0  0  0  0  0  0  0
    0.8163   -1.4418    0.4906 N   0  0  0  0  0  0  0  0  0  0  0  0
   -1.2577   -0.9944   -2.2640 O   0  0  0  0  0  0  0  0  0  0  0  0
   -3.8338    2.6875    2.0667 O   0  0  0  0  0  0  0  0  0  0  0  0
   -3.2208    3.2695   -0.1930 O   0  0  0  0  0  0  0  0  0  0  0  0
    3.4833    3.2188   -0.7493 H   0  0  0  0  0  0  0  0  0  0  0  0
    2.0218    2.9235    0.2002 H   0  0  0  0  0  0  0  0  0  0  0  0
    2.2444    2.1206   -1.3672 H   0  0  0  0  0  0  0  0  0  0  0  0
    1.7251   -4.7733   -1.7040 H   0  0  0  0  0  0  0  0  0  0  0  0
    0.8128   -4.7389   -0.1863 H   0  0  0  0  0  0  0  0  0  0  0  0
    2.2545   -3.7175   -0.3893 H   0  0  0  0  0  0  0  0  0  0  0  0
    4.0833    1.7144    1.0490 H   0  0  0  0  0  0  0  0  0  0  0  0
    4.1329    0.8031   -0.4599 H   0  0  0  0  0  0  0  0  0  0  0  0
   -0.3010   -3.4881   -2.0596 H   0  0  0  0  0  0  0  0  0  0  0  0
    1.0824   -2.4260   -2.1849 H   0  0  0  0  0  0  0  0  0  0  0  0
    3.0585   -0.3874    1.5035 H   0  0  0  0  0  0  0  0  0  0  0  0
    1.7714    0.8158    1.4957 H   0  0  0  0  0  0  0  0  0  0  0  0
   -1.9701   -1.4455    1.5744 H   0  0  0  0  0  0  0  0  0  0  0  0
   -3.1782    0.1953    2.9838 H   0  0  0  0  0  0  0  0  0  0  0  0
    1.1857    0.1541   -0.8512 H   0  0  0  0  0  0  0  0  0  0  0  0
    2.4508   -1.0846   -0.8105 H   0  0  0  0  0  0  0  0  0  0  0  0
   -1.9308    1.3959   -1.7068 H   0  0  0  0  0  0  0  0  0  0  0  0
   -3.2232    4.5605    1.4260 H   0  0  0  0  0  0  0  0  0  0  0  0
   -4.8342    4.0422    0.8562 H   0  0  0  0  0  0  0  0  0  0  0  0
   -0.7741   -2.7709    0.2148 H   0  0  0  0  0  0  0  0  0  0  0  0
    1.3615   -2.1396    0.9987 H   0  0  0  0  0  0  0  0  0  0  0  0
  1  3  1  0
  2  4  1  0
  3  5  1  0
  4 12  1  0
  5  8  1  0
  6  7  2  0
  6 11  1  0
  7 13  1  0
  8 16  1  0
  9 11  2  0
  9 14  1  0
 10 18  1  0
 10 19  1  0
 11 15  1  0
 12 15  1  0
 12 16  1  0
 13 14  2  0
 13 18  1  0
 14 19  1  0
 15 17  2  0
  1 20  1  0
  1 21  1  0
  1 22  1  0
  2 23  1  0
  2 24  1  0
  2 25  1  0
  3 26  1  0
  3 27  1  0
  4 28  1  0
  4 29  1  0
  5 30  1  0
  5 31  1  0
  6 32  1  0
  7 33  1  0
  8 34  1  0
  8 35  1  0
  9 36  1  0
 10 37  1  0
 10 38  1  0
 12 39  1  0
 16 40  1  0
M  END
