
     RDKit          3D

 32 35  0  0  0  0  0  0  0  0999 V2000
    4.0537   -1.1794   -0.3790 C   0  0  0  0  0  0  0  0  0  0  0  0
    4.3676   -0.6542    0.8756 C   0  0  0  0  0  0  0  0  0  0  0  0
    2.7349   -1.1547   -0.8395 C   0  0  0  0  0  0  0  0  0  0  0  0
    3.3618   -0.1112    1.6753 C   0  0  0  0  0  0  0  0  0  0  0  0
   -1.8276    3.0796    0.2212 C   0  0  0  0  0  0  0  0  0  0  0  0
   -2.4857    1.8612    0.4012 C   0  0  0  0  0  0  0  0  0  0  0  0
    0.1426    1.9045   -0.5391 C   0  0  0  0  0  0  0  0  0  0  0  0
   -1.4150   -1.8829   -1.6614 C   0  0  0  0  0  0  0  0  0  0  0  0
   -0.5218    3.0955   -0.2568 C   0  0  0  0  0  0  0  0  0  0  0  0
   -1.8364    0.6477    0.1188 C   0  0  0  0  0  0  0  0  0  0  0  0
    1.7256   -0.5917   -0.0478 C   0  0  0  0  0  0  0  0  0  0  0  0
   -0.4974    0.6690   -0.3330 C   0  0  0  0  0  0  0  0  0  0  0  0
    2.0473   -0.0878    1.2147 C   0  0  0  0  0  0  0  0  0  0  0  0
   -2.4150   -1.7214   -0.5846 C   0  0  0  0  0  0  0  0  0  0  0  0
    0.3174   -0.5831   -0.5590 C   0  0  0  0  0  0  0  0  0  0  0  0
   -2.5713   -0.5989    0.1975 C   0  0  0  0  0  0  0  0  0  0  0  0
    0.2794    4.5981   -0.5002 Cl  0  0  0  0  0  0  0  0  0  0  0  0
    1.1010    0.4184    2.0194 F   0  0  0  0  0  0  0  0  0  0  0  0
   -0.0625   -1.6668   -1.1505 N   0  0  0  0  0  0  0  0  0  0  0  0
   -3.3359   -2.6664   -0.2310 N   0  0  0  0  0  0  0  0  0  0  0  0
   -3.5955   -0.9399    1.0327 N   0  0  0  0  0  0  0  0  0  0  0  0
   -4.0625   -2.1710    0.7644 N   0  0  0  0  0  0  0  0  0  0  0  0
    4.8347   -1.6170   -0.9970 H   0  0  0  0  0  0  0  0  0  0  0  0
    5.3940   -0.6796    1.2342 H   0  0  0  0  0  0  0  0  0  0  0  0
    2.4951   -1.5778   -1.8127 H   0  0  0  0  0  0  0  0  0  0  0  0
    3.5922    0.2856    2.6594 H   0  0  0  0  0  0  0  0  0  0  0  0
   -2.3464    4.0108    0.4361 H   0  0  0  0  0  0  0  0  0  0  0  0
   -3.5225    1.8796    0.7296 H   0  0  0  0  0  0  0  0  0  0  0  0
    1.1620    1.9453   -0.9154 H   0  0  0  0  0  0  0  0  0  0  0  0
   -1.4719   -2.8994   -2.0657 H   0  0  0  0  0  0  0  0  0  0  0  0
   -1.6214   -1.1991   -2.4929 H   0  0  0  0  0  0  0  0  0  0  0  0
   -4.0205   -0.4132    1.7856 H   0  0  0  0  0  0  0  0  0  0  0  0
  1  2  2  0
  1  3  1  0
  2  4  1  0
  3 11  2  0
  4 13  2  0
  5  6  2  0
  5  9  1  0
  6 10  1  0
  7  9  2  0
  7 12  1  0
  8 14  1  0
  8 19  1  0
  9 17  1  0
 10 12  2  0
 10 16  1  0
 11 13  1  0
 11 15  1  0
 12 15  1  0
 13 18  1  0
 14 16  2  0
 14 20  1  0
 15 19  2  0
 16 21  1  0
 20 22  2  0
 21 22  1  0
  1 23  1  0
  2 24  1  0
  3 25  1  0
  4 26  1  0
  5 27  1  0
  6 28  1  0
  7 29  1  0
  8 30  1  0
  8 31  1  0
 21 32  1  0
M  END
