
     RDKit          3D

 33 35  0  0  0  0  0  0  0  0999 V2000
   -0.2289    3.7704   -1.1324 C   0  0  0  0  0  0  0  0  0  0  0  0
   -3.1872   -0.9415    1.6581 C   0  0  0  0  0  0  0  0  0  0  0  0
   -4.0724   -1.4400    0.6992 C   0  0  0  0  0  0  0  0  0  0  0  0
   -1.8251   -0.8365    1.3679 C   0  0  0  0  0  0  0  0  0  0  0  0
   -3.5979   -1.8348   -0.5529 C   0  0  0  0  0  0  0  0  0  0  0  0
    0.0251    1.3218   -0.6305 C   0  0  0  0  0  0  0  0  0  0  0  0
    2.4927    1.7111    0.5829 C   0  0  0  0  0  0  0  0  0  0  0  0
    2.1444   -2.1750   -0.7841 C   0  0  0  0  0  0  0  0  0  0  0  0
    0.5487    2.6215   -0.5538 C   0  0  0  0  0  0  0  0  0  0  0  0
   -1.3537   -1.2319    0.1105 C   0  0  0  0  0  0  0  0  0  0  0  0
    0.7254    0.2218   -0.0994 C   0  0  0  0  0  0  0  0  0  0  0  0
    1.7908    2.8030    0.0655 C   0  0  0  0  0  0  0  0  0  0  0  0
   -2.2399   -1.7316   -0.8426 C   0  0  0  0  0  0  0  0  0  0  0  0
    1.9837    0.4090    0.4982 C   0  0  0  0  0  0  0  0  0  0  0  0
    2.8569   -1.7437    0.4693 C   0  0  0  0  0  0  0  0  0  0  0  0
    0.0944   -1.1292   -0.1973 C   0  0  0  0  0  0  0  0  0  0  0  0
    2.5060    4.3682    0.2131 Cl  0  0  0  0  0  0  0  0  0  0  0  0
   -1.8166   -2.0769   -2.0671 F   0  0  0  0  0  0  0  0  0  0  0  0
    0.7071   -2.2218   -0.5115 N   0  0  0  0  0  0  0  0  0  0  0  0
    2.7815   -0.6018    1.0659 N   0  0  0  0  0  0  0  0  0  0  0  0
    3.6564   -2.6681    1.0195 O   0  0  0  0  0  0  0  0  0  0  0  0
   -0.4746    4.4969   -0.3512 H   0  0  0  0  0  0  0  0  0  0  0  0
   -1.1726    3.4340   -1.5751 H   0  0  0  0  0  0  0  0  0  0  0  0
    0.3470    4.2613   -1.9234 H   0  0  0  0  0  0  0  0  0  0  0  0
   -3.5586   -0.6431    2.6361 H   0  0  0  0  0  0  0  0  0  0  0  0
   -5.1321   -1.5246    0.9292 H   0  0  0  0  0  0  0  0  0  0  0  0
   -1.1395   -0.4665    2.1263 H   0  0  0  0  0  0  0  0  0  0  0  0
   -4.2773   -2.2216   -1.3064 H   0  0  0  0  0  0  0  0  0  0  0  0
   -0.9338    1.1670   -1.1227 H   0  0  0  0  0  0  0  0  0  0  0  0
    3.4578    1.8661    1.0612 H   0  0  0  0  0  0  0  0  0  0  0  0
    2.3853   -1.5045   -1.6162 H   0  0  0  0  0  0  0  0  0  0  0  0
    2.4824   -3.1771   -1.0674 H   0  0  0  0  0  0  0  0  0  0  0  0
    4.0247   -2.2820    1.8311 H   0  0  0  0  0  0  0  0  0  0  0  0
  1  9  1  0
  2  3  2  0
  2  4  1  0
  3  5  1  0
  4 10  2  0
  5 13  2  0
  6  9  2  0
  6 11  1  0
  7 12  2  0
  7 14  1  0
  8 15  1  0
  8 19  1  0
  9 12  1  0
 10 13  1  0
 10 16  1  0
 11 14  2  0
 11 16  1  0
 12 17  1  0
 13 18  1  0
 14 20  1  0
 15 20  2  0
 15 21  1  0
 16 19  2  0
  1 22  1  0
  1 23  1  0
  1 24  1  0
  2 25  1  0
  3 26  1  0
  4 27  1  0
  5 28  1  0
  6 29  1  0
  7 30  1  0
  8 31  1  0
  8 32  1  0
 21 33  1  0
M  END
