
     RDKit          3D

 34 37  0  0  0  0  0  0  0  0999 V2000
   -3.7074    0.8206   -1.5462 C   0  0  0  0  0  0  0  0  0  0  0  0
    4.4122    1.3002   -0.2154 C   0  0  0  0  0  0  0  0  0  0  0  0
    4.5332    0.5421   -1.3743 C   0  0  0  0  0  0  0  0  0  0  0  0
    3.2289    1.2439    0.5157 C   0  0  0  0  0  0  0  0  0  0  0  0
   -1.6491   -2.9333   -0.3229 C   0  0  0  0  0  0  0  0  0  0  0  0
   -2.2012   -1.6533   -0.2324 C   0  0  0  0  0  0  0  0  0  0  0  0
    3.4600   -0.2448   -1.7592 C   0  0  0  0  0  0  0  0  0  0  0  0
    0.4819   -2.0703    0.4145 C   0  0  0  0  0  0  0  0  0  0  0  0
   -0.6277    1.3211    2.3623 C   0  0  0  0  0  0  0  0  0  0  0  0
   -3.0919    1.2865   -0.2815 C   0  0  0  0  0  0  0  0  0  0  0  0
   -0.3144   -3.1377    0.0090 C   0  0  0  0  0  0  0  0  0  0  0  0
   -0.0488   -0.7699    0.4790 C   0  0  0  0  0  0  0  0  0  0  0  0
    2.2056    0.4188    0.0599 C   0  0  0  0  0  0  0  0  0  0  0  0
   -1.4116   -0.5662    0.1796 C   0  0  0  0  0  0  0  0  0  0  0  0
   -1.7130    1.5788    1.3893 C   0  0  0  0  0  0  0  0  0  0  0  0
    0.8974    0.3511    0.8072 C   0  0  0  0  0  0  0  0  0  0  0  0
    0.3548   -4.7195   -0.0808 Cl  0  0  0  0  0  0  0  0  0  0  0  0
    2.2996   -0.3242   -1.0719 N   0  0  0  0  0  0  0  0  0  0  0  0
    0.6566    1.2792    1.6757 N   0  0  0  0  0  0  0  0  0  0  0  0
   -3.4233    2.4010    0.3398 N   0  0  0  0  0  0  0  0  0  0  0  0
   -2.5595    2.5855    1.3834 N   0  0  0  0  0  0  0  0  0  0  0  0
   -2.0246    0.6969    0.3766 N   0  0  0  0  0  0  0  0  0  0  0  0
   -4.5262    0.1241   -1.3448 H   0  0  0  0  0  0  0  0  0  0  0  0
   -4.1265    1.6717   -2.0936 H   0  0  0  0  0  0  0  0  0  0  0  0
   -2.9769    0.3410   -2.2040 H   0  0  0  0  0  0  0  0  0  0  0  0
    5.2291    1.9362    0.1148 H   0  0  0  0  0  0  0  0  0  0  0  0
    5.4412    0.5683   -1.9670 H   0  0  0  0  0  0  0  0  0  0  0  0
    3.1102    1.8365    1.4171 H   0  0  0  0  0  0  0  0  0  0  0  0
   -2.2730   -3.7701   -0.6290 H   0  0  0  0  0  0  0  0  0  0  0  0
   -3.2654   -1.5525   -0.4270 H   0  0  0  0  0  0  0  0  0  0  0  0
    3.5076   -0.8501   -2.6605 H   0  0  0  0  0  0  0  0  0  0  0  0
    1.5266   -2.2518    0.6577 H   0  0  0  0  0  0  0  0  0  0  0  0
   -0.8065    0.4034    2.9354 H   0  0  0  0  0  0  0  0  0  0  0  0
   -0.5979    2.1369    3.0933 H   0  0  0  0  0  0  0  0  0  0  0  0
  1 10  1  0
  2  3  2  0
  2  4  1  0
  3  7  1  0
  4 13  2  0
  5  6  2  0
  5 11  1  0
  6 14  1  0
  7 18  2  0
  8 11  2  0
  8 12  1  0
  9 15  1  0
  9 19  1  0
 10 20  2  0
 10 22  1  0
 11 17  1  0
 12 14  2  0
 12 16  1  0
 13 16  1  0
 13 18  1  0
 14 22  1  0
 15 21  2  0
 15 22  1  0
 16 19  2  0
 20 21  1  0
  1 23  1  0
  1 24  1  0
  1 25  1  0
  2 26  1  0
  3 27  1  0
  4 28  1  0
  5 29  1  0
  6 30  1  0
  7 31  1  0
  8 32  1  0
  9 33  1  0
  9 34  1  0
M  END
