
     RDKit          3D

 33 35  0  0  0  0  0  0  0  0999 V2000
   -3.3282    1.0232   -1.4139 C   0  0  0  0  0  0  0  0  0  0  0  0
    4.2327    0.9425    0.4622 C   0  0  0  0  0  0  0  0  0  0  0  0
    4.5277    0.2834   -0.7318 C   0  0  0  0  0  0  0  0  0  0  0  0
    2.9099    1.0378    0.9021 C   0  0  0  0  0  0  0  0  0  0  0  0
    3.4993   -0.2736   -1.4916 C   0  0  0  0  0  0  0  0  0  0  0  0
   -2.0168   -2.8239   -0.0850 C   0  0  0  0  0  0  0  0  0  0  0  0
   -2.5069   -1.5461   -0.3762 C   0  0  0  0  0  0  0  0  0  0  0  0
    0.0117   -1.8432    0.7661 C   0  0  0  0  0  0  0  0  0  0  0  0
   -1.2348    1.8491    1.6710 C   0  0  0  0  0  0  0  0  0  0  0  0
   -0.7635   -2.9664    0.4967 C   0  0  0  0  0  0  0  0  0  0  0  0
    1.8750    0.4627    0.1524 C   0  0  0  0  0  0  0  0  0  0  0  0
   -0.4694   -0.5586    0.4473 C   0  0  0  0  0  0  0  0  0  0  0  0
    2.1807   -0.1770   -1.0513 C   0  0  0  0  0  0  0  0  0  0  0  0
   -1.7600   -0.3870   -0.0914 C   0  0  0  0  0  0  0  0  0  0  0  0
   -2.1271    2.0224    0.4493 C   0  0  0  0  0  0  0  0  0  0  0  0
    0.4693    0.5843    0.6456 C   0  0  0  0  0  0  0  0  0  0  0  0
    1.2167   -0.6996   -1.8235 F   0  0  0  0  0  0  0  0  0  0  0  0
   -0.0387   -4.8584    0.9496 I   0  0  0  0  0  0  0  0  0  0  0  0
    0.1498    1.6863    1.2379 N   0  0  0  0  0  0  0  0  0  0  0  0
   -2.3366    0.8957   -0.3545 N   0  0  0  0  0  0  0  0  0  0  0  0
   -2.6879    3.1013    0.2338 O   0  0  0  0  0  0  0  0  0  0  0  0
   -3.3721    2.0512   -1.7872 H   0  0  0  0  0  0  0  0  0  0  0  0
   -4.3130    0.7605   -1.0150 H   0  0  0  0  0  0  0  0  0  0  0  0
   -3.0716    0.3781   -2.2602 H   0  0  0  0  0  0  0  0  0  0  0  0
    5.0316    1.3904    1.0492 H   0  0  0  0  0  0  0  0  0  0  0  0
    5.5573    0.2149   -1.0753 H   0  0  0  0  0  0  0  0  0  0  0  0
    2.6878    1.5635    1.8287 H   0  0  0  0  0  0  0  0  0  0  0  0
    3.7150   -0.7747   -2.4304 H   0  0  0  0  0  0  0  0  0  0  0  0
   -2.6338   -3.6917   -0.3070 H   0  0  0  0  0  0  0  0  0  0  0  0
   -3.5089   -1.4809   -0.7935 H   0  0  0  0  0  0  0  0  0  0  0  0
    0.9965   -1.9606    1.2125 H   0  0  0  0  0  0  0  0  0  0  0  0
   -1.5881    1.0323    2.3104 H   0  0  0  0  0  0  0  0  0  0  0  0
   -1.3036    2.7623    2.2729 H   0  0  0  0  0  0  0  0  0  0  0  0
  1 20  1  0
  2  3  2  0
  2  4  1  0
  3  5  1  0
  4 11  2  0
  5 13  2  0
  6  7  2  0
  6 10  1  0
  7 14  1  0
  8 10  2  0
  8 12  1  0
  9 15  1  0
  9 19  1  0
 10 18  1  0
 11 13  1  0
 11 16  1  0
 12 14  2  0
 12 16  1  0
 13 17  1  0
 14 20  1  0
 15 20  1  0
 15 21  2  0
 16 19  2  0
  1 22  1  0
  1 23  1  0
  1 24  1  0
  2 25  1  0
  3 26  1  0
  4 27  1  0
  5 28  1  0
  6 29  1  0
  7 30  1  0
  8 31  1  0
  9 32  1  0
  9 33  1  0
M  END
