
     RDKit          3D

 40 42  0  0  0  0  0  0  0  0999 V2000
    3.8220    0.3623   -0.9506 C   0  0  0  0  0  0  0  0  0  0  0  0
   -1.3193    3.7578    0.9234 C   0  0  0  0  0  0  0  0  0  0  0  0
   -3.4573   -2.0754    1.6954 C   0  0  0  0  0  0  0  0  0  0  0  0
   -2.7234   -0.9533    2.0643 C   0  0  0  0  0  0  0  0  0  0  0  0
   -3.2337   -2.6616    0.4566 C   0  0  0  0  0  0  0  0  0  0  0  0
   -1.7598   -0.4186    1.2001 C   0  0  0  0  0  0  0  0  0  0  0  0
   -2.2718   -2.1256   -0.4027 C   0  0  0  0  0  0  0  0  0  0  0  0
    1.8524   -1.0442    0.9036 C   0  0  0  0  0  0  0  0  0  0  0  0
    1.6407    0.4548    1.0934 C   0  0  0  0  0  0  0  0  0  0  0  0
    0.6489   -1.5523   -1.2874 C   0  0  0  0  0  0  0  0  0  0  0  0
   -1.5018   -0.9972   -0.0466 C   0  0  0  0  0  0  0  0  0  0  0  0
    1.9908   -1.2202   -0.6093 C   0  0  0  0  0  0  0  0  0  0  0  0
   -0.4742   -0.4926   -1.0650 C   0  0  0  0  0  0  0  0  0  0  0  0
    1.5358    1.0196   -0.3242 C   0  0  0  0  0  0  0  0  0  0  0  0
    0.1338    0.9391   -0.9814 C   0  0  0  0  0  0  0  0  0  0  0  0
   -0.8536    2.0118   -0.5650 C   0  0  0  0  0  0  0  0  0  0  0  0
    2.3929    0.1038   -1.1131 N   0  0  0  0  0  0  0  0  0  0  0  0
   -1.9183    2.2085   -1.1393 O   0  0  0  0  0  0  0  0  0  0  0  0
   -0.4173    2.7321    0.5039 O   0  0  0  0  0  0  0  0  0  0  0  0
    4.1784    0.2680    0.0800 H   0  0  0  0  0  0  0  0  0  0  0  0
    4.0641    1.3706   -1.3038 H   0  0  0  0  0  0  0  0  0  0  0  0
    4.3986   -0.3336   -1.5699 H   0  0  0  0  0  0  0  0  0  0  0  0
   -1.4650    4.4909    0.1239 H   0  0  0  0  0  0  0  0  0  0  0  0
   -0.8755    4.2669    1.7833 H   0  0  0  0  0  0  0  0  0  0  0  0
   -2.2752    3.3241    1.2337 H   0  0  0  0  0  0  0  0  0  0  0  0
   -4.2066   -2.4844    2.3671 H   0  0  0  0  0  0  0  0  0  0  0  0
   -2.9039   -0.4829    3.0277 H   0  0  0  0  0  0  0  0  0  0  0  0
   -3.8090   -3.5318    0.1525 H   0  0  0  0  0  0  0  0  0  0  0  0
   -1.2400    0.4652    1.5432 H   0  0  0  0  0  0  0  0  0  0  0  0
   -2.1267   -2.5991   -1.3728 H   0  0  0  0  0  0  0  0  0  0  0  0
    2.7737   -1.3482    1.4147 H   0  0  0  0  0  0  0  0  0  0  0  0
    1.0355   -1.6353    1.3274 H   0  0  0  0  0  0  0  0  0  0  0  0
    2.5184    0.8773    1.5995 H   0  0  0  0  0  0  0  0  0  0  0  0
    0.7922    0.6838    1.7351 H   0  0  0  0  0  0  0  0  0  0  0  0
    0.8301   -1.6222   -2.3700 H   0  0  0  0  0  0  0  0  0  0  0  0
    0.3348   -2.5557   -0.9762 H   0  0  0  0  0  0  0  0  0  0  0  0
    2.7137   -2.0045   -0.8624 H   0  0  0  0  0  0  0  0  0  0  0  0
   -1.0608   -0.4755   -1.9990 H   0  0  0  0  0  0  0  0  0  0  0  0
    1.9027    2.0524   -0.3683 H   0  0  0  0  0  0  0  0  0  0  0  0
    0.3335    1.2254   -2.0301 H   0  0  0  0  0  0  0  0  0  0  0  0
  1 17  1  0
  2 19  1  0
  3  4  2  0
  3  5  1  0
  4  6  1  0
  5  7  2  0
  6 11  2  0
  7 11  1  0
  8  9  1  0
  8 12  1  0
  9 14  1  0
 10 12  1  0
 10 13  1  0
 11 13  1  0
 12 17  1  0
 13 15  1  0
 14 15  1  0
 14 17  1  0
 15 16  1  0
 16 18  2  0
 16 19  1  0
  1 20  1  0
  1 21  1  0
  1 22  1  0
  2 23  1  0
  2 24  1  0
  2 25  1  0
  3 26  1  0
  4 27  1  0
  5 28  1  0
  6 29  1  0
  7 30  1  0
  8 31  1  0
  8 32  1  0
  9 33  1  0
  9 34  1  0
 10 35  1  0
 10 36  1  0
 12 37  1  0
 13 38  1  0
 14 39  1  0
 15 40  1  0
M  END
