
     RDKit          3D

 36 37  0  0  0  0  0  0  0  0999 V2000
    3.9810    0.5532   -1.5818 C   0  0  0  0  0  0  0  0  0  0  0  0
    3.0681    0.1088    0.5869 C   0  0  0  0  0  0  0  0  0  0  0  0
   -1.7642   -3.8338    1.2133 C   0  0  0  0  0  0  0  0  0  0  0  0
   -0.9168   -2.8002    0.8174 C   0  0  0  0  0  0  0  0  0  0  0  0
   -0.8608    1.3916    1.3526 C   0  0  0  0  0  0  0  0  0  0  0  0
   -1.4350    1.7171   -0.9765 C   0  0  0  0  0  0  0  0  0  0  0  0
   -1.2174    2.7143    1.6252 C   0  0  0  0  0  0  0  0  0  0  0  0
   -1.7918    3.0397   -0.7044 C   0  0  0  0  0  0  0  0  0  0  0  0
    0.5675   -0.7844   -0.8735 C   0  0  0  0  0  0  0  0  0  0  0  0
   -3.1221   -3.6961    0.9817 C   0  0  0  0  0  0  0  0  0  0  0  0
    1.6153    0.1857   -1.3519 C   0  0  0  0  0  0  0  0  0  0  0  0
   -2.8249   -1.6248    0.0237 C   0  0  0  0  0  0  0  0  0  0  0  0
   -0.9620    0.8871    0.0499 C   0  0  0  0  0  0  0  0  0  0  0  0
   -1.4410   -1.6620    0.1934 C   0  0  0  0  0  0  0  0  0  0  0  0
   -1.6797    3.5317    0.5950 C   0  0  0  0  0  0  0  0  0  0  0  0
   -0.5884   -0.5185   -0.2244 C   0  0  0  0  0  0  0  0  0  0  0  0
   -2.1608    5.3222    0.9637 Br  0  0  0  0  0  0  0  0  0  0  0  0
   -3.6753   -2.6136    0.3972 N   0  0  0  0  0  0  0  0  0  0  0  0
    2.9487   -0.1810   -0.8457 N   0  0  0  0  0  0  0  0  0  0  0  0
    3.9416    0.3080   -2.6490 H   0  0  0  0  0  0  0  0  0  0  0  0
    3.8757    1.6388   -1.4722 H   0  0  0  0  0  0  0  0  0  0  0  0
    4.9797    0.2661   -1.2339 H   0  0  0  0  0  0  0  0  0  0  0  0
    2.9026    1.1691    0.8107 H   0  0  0  0  0  0  0  0  0  0  0  0
    4.0650   -0.1660    0.9502 H   0  0  0  0  0  0  0  0  0  0  0  0
    2.3569   -0.4830    1.1729 H   0  0  0  0  0  0  0  0  0  0  0  0
   -1.3726   -4.7227    1.6947 H   0  0  0  0  0  0  0  0  0  0  0  0
    0.1499   -2.8869    1.0089 H   0  0  0  0  0  0  0  0  0  0  0  0
   -0.5035    0.7568    2.1606 H   0  0  0  0  0  0  0  0  0  0  0  0
   -1.5287    1.3363   -1.9913 H   0  0  0  0  0  0  0  0  0  0  0  0
   -1.1335    3.0936    2.6401 H   0  0  0  0  0  0  0  0  0  0  0  0
   -2.1563    3.6735   -1.5085 H   0  0  0  0  0  0  0  0  0  0  0  0
    0.8204   -1.8188   -1.1055 H   0  0  0  0  0  0  0  0  0  0  0  0
   -3.8218   -4.4745    1.2722 H   0  0  0  0  0  0  0  0  0  0  0  0
    1.3856    1.2276   -1.1045 H   0  0  0  0  0  0  0  0  0  0  0  0
    1.6122    0.1170   -2.4478 H   0  0  0  0  0  0  0  0  0  0  0  0
   -3.3138   -0.7717   -0.4394 H   0  0  0  0  0  0  0  0  0  0  0  0
  1 19  1  0
  2 19  1  0
  3  4  2  0
  3 10  1  0
  4 14  1  0
  5  7  2  0
  5 13  1  0
  6  8  1  0
  6 13  2  0
  7 15  1  0
  8 15  2  0
  9 11  1  0
  9 16  2  3
 10 18  2  0
 11 19  1  0
 12 14  2  0
 12 18  1  0
 13 16  1  0
 14 16  1  0
 15 17  1  0
  1 20  1  0
  1 21  1  0
  1 22  1  0
  2 23  1  0
  2 24  1  0
  2 25  1  0
  3 26  1  0
  4 27  1  0
  5 28  1  0
  6 29  1  0
  7 30  1  0
  8 31  1  0
  9 32  1  0
 10 33  1  0
 11 34  1  0
 11 35  1  0
 12 36  1  0
M  END
