
     RDKit          3D

 40 41  0  0  0  0  0  0  0  0999 V2000
    7.6388    0.0594   -0.1013 C   0  0  0  0  0  0  0  0  0  0  0  0
    6.1507   -0.0055    0.1834 C   0  0  0  0  0  0  0  0  0  0  0  0
   -5.1041   -0.2799   -1.0057 C   0  0  0  0  0  0  0  0  0  0  0  0
   -5.1569   -0.8664    1.3438 C   0  0  0  0  0  0  0  0  0  0  0  0
   -6.4544    0.0672   -0.9499 C   0  0  0  0  0  0  0  0  0  0  0  0
   -6.5079   -0.5188    1.3965 C   0  0  0  0  0  0  0  0  0  0  0  0
   -0.0577   -1.1126   -0.2567 C   0  0  0  0  0  0  0  0  0  0  0  0
    1.3401   -1.1069   -0.2108 C   0  0  0  0  0  0  0  0  0  0  0  0
   -0.0819    1.2103    0.3489 C   0  0  0  0  0  0  0  0  0  0  0  0
   -2.9763   -1.1185    0.0748 C   0  0  0  0  0  0  0  0  0  0  0  0
   -4.4436   -0.7571    0.1392 C   0  0  0  0  0  0  0  0  0  0  0  0
   -7.1437   -0.0571    0.2500 C   0  0  0  0  0  0  0  0  0  0  0  0
   -0.7937    0.0338    0.0592 C   0  0  0  0  0  0  0  0  0  0  0  0
    1.3188    1.2469    0.3580 C   0  0  0  0  0  0  0  0  0  0  0  0
    2.0349    0.0623    0.1014 C   0  0  0  0  0  0  0  0  0  0  0  0
    4.1029    0.3348   -0.9389 C   0  0  0  0  0  0  0  0  0  0  0  0
   -8.4397    0.2771    0.3042 F   0  0  0  0  0  0  0  0  0  0  0  0
    1.9814    2.4072    0.7954 N   0  0  0  0  0  0  0  0  0  0  0  0
   -2.1884    0.1031   -0.0216 N   0  0  0  0  0  0  0  0  0  0  0  0
    3.4395    0.0458    0.1280 N   0  0  0  0  0  0  0  0  0  0  0  0
    3.5767    0.6758   -2.1275 O   0  0  0  0  0  0  0  0  0  0  0  0
    5.4509    0.3476   -1.0169 O   0  0  0  0  0  0  0  0  0  0  0  0
    7.9063   -0.6260   -0.9124 H   0  0  0  0  0  0  0  0  0  0  0  0
    7.9255    1.0650   -0.4265 H   0  0  0  0  0  0  0  0  0  0  0  0
    8.2180   -0.2028    0.7884 H   0  0  0  0  0  0  0  0  0  0  0  0
    5.8777   -1.0225    0.4864 H   0  0  0  0  0  0  0  0  0  0  0  0
    5.8974    0.7013    0.9814 H   0  0  0  0  0  0  0  0  0  0  0  0
   -4.5597   -0.1708   -1.9421 H   0  0  0  0  0  0  0  0  0  0  0  0
   -4.6647   -1.2212    2.2470 H   0  0  0  0  0  0  0  0  0  0  0  0
   -6.9695    0.4364   -1.8308 H   0  0  0  0  0  0  0  0  0  0  0  0
   -7.0672   -0.6025    2.3229 H   0  0  0  0  0  0  0  0  0  0  0  0
   -0.5512   -2.0392   -0.5332 H   0  0  0  0  0  0  0  0  0  0  0  0
    1.8901   -2.0198   -0.4236 H   0  0  0  0  0  0  0  0  0  0  0  0
   -0.6308    2.1188    0.5844 H   0  0  0  0  0  0  0  0  0  0  0  0
   -2.8159   -1.7614   -0.7991 H   0  0  0  0  0  0  0  0  0  0  0  0
   -2.6960   -1.6908    0.9679 H   0  0  0  0  0  0  0  0  0  0  0  0
    1.5281    3.2803    0.5528 H   0  0  0  0  0  0  0  0  0  0  0  0
    2.9802    2.3866    0.6042 H   0  0  0  0  0  0  0  0  0  0  0  0
   -2.5651    0.8462    0.5635 H   0  0  0  0  0  0  0  0  0  0  0  0
    2.6105    0.6784   -2.0846 H   0  0  0  0  0  0  0  0  0  0  0  0
  1  2  1  0
  2 22  1  0
  3  5  2  0
  3 11  1  0
  4  6  1  0
  4 11  2  0
  5 12  1  0
  6 12  2  0
  7  8  2  0
  7 13  1  0
  8 15  1  0
  9 13  2  0
  9 14  1  0
 10 11  1  0
 10 19  1  0
 12 17  1  0
 13 19  1  0
 14 15  2  0
 14 18  1  0
 15 20  1  0
 16 20  2  3
 16 21  1  0
 16 22  1  0
  1 23  1  0
  1 24  1  0
  1 25  1  0
  2 26  1  0
  2 27  1  0
  3 28  1  0
  4 29  1  0
  5 30  1  0
  6 31  1  0
  7 32  1  0
  8 33  1  0
  9 34  1  0
 10 35  1  0
 10 36  1  0
 18 37  1  0
 18 38  1  0
 19 39  1  0
 21 40  1  0
M  END
