
     RDKit          3D

 36 39  0  0  0  0  0  0  0  0999 V2000
   -3.6268    1.7954   -1.0454 C   0  0  0  0  0  0  0  0  0  0  0  0
   -2.2651   -1.1216    1.9767 C   0  0  0  0  0  0  0  0  0  0  0  0
    3.0230    2.1648   -1.0356 C   0  0  0  0  0  0  0  0  0  0  0  0
    1.6879    2.0497   -0.6153 C   0  0  0  0  0  0  0  0  0  0  0  0
    3.9088    1.0754   -1.0092 C   0  0  0  0  0  0  0  0  0  0  0  0
   -1.3254    1.4209   -0.1679 C   0  0  0  0  0  0  0  0  0  0  0  0
    0.4855   -1.9562    0.7927 C   0  0  0  0  0  0  0  0  0  0  0  0
    3.0301   -2.2575    0.1607 C   0  0  0  0  0  0  0  0  0  0  0  0
   -2.9084   -0.5315   -0.2815 C   0  0  0  0  0  0  0  0  0  0  0  0
   -2.5418    0.9278   -0.4760 C   0  0  0  0  0  0  0  0  0  0  0  0
    1.8471   -1.5717    0.3072 C   0  0  0  0  0  0  0  0  0  0  0  0
    1.1749    0.8242   -0.1680 C   0  0  0  0  0  0  0  0  0  0  0  0
   -0.2177    0.5491    0.3814 C   0  0  0  0  0  0  0  0  0  0  0  0
    3.3978   -0.1323   -0.5345 C   0  0  0  0  0  0  0  0  0  0  0  0
   -0.5843   -0.9882    0.1720 C   0  0  0  0  0  0  0  0  0  0  0  0
    2.0833   -0.2468   -0.1266 C   0  0  0  0  0  0  0  0  0  0  0  0
    3.9611   -1.3773   -0.3535 N   0  0  0  0  0  0  0  0  0  0  0  0
   -1.9822   -1.3184    0.5558 N   0  0  0  0  0  0  0  0  0  0  0  0
   -3.2972    2.8304   -1.1843 H   0  0  0  0  0  0  0  0  0  0  0  0
   -3.9446    1.4133   -2.0209 H   0  0  0  0  0  0  0  0  0  0  0  0
   -4.4934    1.8082   -0.3766 H   0  0  0  0  0  0  0  0  0  0  0  0
   -3.2910   -1.4356    2.2025 H   0  0  0  0  0  0  0  0  0  0  0  0
   -2.1567   -0.0830    2.3045 H   0  0  0  0  0  0  0  0  0  0  0  0
   -1.6205   -1.7489    2.5997 H   0  0  0  0  0  0  0  0  0  0  0  0
    3.3850    3.1297   -1.3862 H   0  0  0  0  0  0  0  0  0  0  0  0
    1.0608    2.9363   -0.6410 H   0  0  0  0  0  0  0  0  0  0  0  0
    4.9382    1.1784   -1.3328 H   0  0  0  0  0  0  0  0  0  0  0  0
   -1.1302    2.4813   -0.2894 H   0  0  0  0  0  0  0  0  0  0  0  0
    0.4788   -1.8954    1.8865 H   0  0  0  0  0  0  0  0  0  0  0  0
    0.2616   -2.9906    0.5075 H   0  0  0  0  0  0  0  0  0  0  0  0
    3.2986   -3.2848    0.3665 H   0  0  0  0  0  0  0  0  0  0  0  0
   -2.9526   -1.0008   -1.2733 H   0  0  0  0  0  0  0  0  0  0  0  0
   -3.9252   -0.6086    0.1245 H   0  0  0  0  0  0  0  0  0  0  0  0
   -0.1555    0.7540    1.4595 H   0  0  0  0  0  0  0  0  0  0  0  0
   -0.5252   -1.1814   -0.9135 H   0  0  0  0  0  0  0  0  0  0  0  0
    4.9213   -1.6082   -0.5663 H   0  0  0  0  0  0  0  0  0  0  0  0
  1 10  1  0
  2 18  1  0
  3  4  2  0
  3  5  1  0
  4 12  1  0
  5 14  2  0
  6 10  2  0
  6 13  1  0
  7 11  1  0
  7 15  1  0
  8 11  2  0
  8 17  1  0
  9 10  1  0
  9 18  1  0
 11 16  1  0
 12 13  1  0
 12 16  2  0
 13 15  1  0
 14 16  1  0
 14 17  1  0
 15 18  1  0
  1 19  1  0
  1 20  1  0
  1 21  1  0
  2 22  1  0
  2 23  1  0
  2 24  1  0
  3 25  1  0
  4 26  1  0
  5 27  1  0
  6 28  1  0
  7 29  1  0
  7 30  1  0
  8 31  1  0
  9 32  1  0
  9 33  1  0
 13 34  1  0
 15 35  1  0
 17 36  1  0
M  END
