
     RDKit          3D

 41 42  0  0  0  0  0  0  0  0999 V2000
   -1.8509   -3.2863   -1.4517 C   0  0  0  0  0  0  0  0  0  0  0  0
   -0.8300   -2.7545    0.7684 C   0  0  0  0  0  0  0  0  0  0  0  0
    4.4197   -0.7558    1.2890 C   0  0  0  0  0  0  0  0  0  0  0  0
    4.3442   -1.0109   -0.0780 C   0  0  0  0  0  0  0  0  0  0  0  0
    3.3311   -0.1928    1.9529 C   0  0  0  0  0  0  0  0  0  0  0  0
   -2.5994    3.2707    0.2549 C   0  0  0  0  0  0  0  0  0  0  0  0
   -1.2158    3.8498    0.0003 C   0  0  0  0  0  0  0  0  0  0  0  0
    3.1759   -0.7078   -0.7795 C   0  0  0  0  0  0  0  0  0  0  0  0
    2.1594    0.1117    1.2529 C   0  0  0  0  0  0  0  0  0  0  0  0
   -2.4230    1.7579    0.1862 C   0  0  0  0  0  0  0  0  0  0  0  0
   -0.2817    2.6566    0.0874 C   0  0  0  0  0  0  0  0  0  0  0  0
   -1.4386   -0.8779   -0.8560 C   0  0  0  0  0  0  0  0  0  0  0  0
   -0.9250   -2.3272   -0.6970 C   0  0  0  0  0  0  0  0  0  0  0  0
    2.0697   -0.1529   -0.1186 C   0  0  0  0  0  0  0  0  0  0  0  0
   -0.5317    0.2155   -0.2339 C   0  0  0  0  0  0  0  0  0  0  0  0
    0.8476    0.1404   -0.9305 C   0  0  0  0  0  0  0  0  0  0  0  0
   -1.1098    1.5678   -0.4350 N   0  0  0  0  0  0  0  0  0  0  0  0
    0.9818    0.2729   -2.1490 O   0  0  0  0  0  0  0  0  0  0  0  0
   -1.9019   -3.0229   -2.5135 H   0  0  0  0  0  0  0  0  0  0  0  0
   -1.4849   -4.3162   -1.3821 H   0  0  0  0  0  0  0  0  0  0  0  0
   -2.8680   -3.2599   -1.0458 H   0  0  0  0  0  0  0  0  0  0  0  0
   -1.7913   -2.6356    1.2795 H   0  0  0  0  0  0  0  0  0  0  0  0
   -0.5344   -3.8063    0.8471 H   0  0  0  0  0  0  0  0  0  0  0  0
   -0.0819   -2.1688    1.3096 H   0  0  0  0  0  0  0  0  0  0  0  0
    5.3303   -0.9890    1.8355 H   0  0  0  0  0  0  0  0  0  0  0  0
    5.1940   -1.4423   -0.6013 H   0  0  0  0  0  0  0  0  0  0  0  0
    3.3975    0.0162    3.0182 H   0  0  0  0  0  0  0  0  0  0  0  0
   -3.3052    3.6277   -0.5032 H   0  0  0  0  0  0  0  0  0  0  0  0
   -2.9791    3.5719    1.2371 H   0  0  0  0  0  0  0  0  0  0  0  0
   -0.9569    4.6312    0.7213 H   0  0  0  0  0  0  0  0  0  0  0  0
   -1.1789    4.2915   -1.0031 H   0  0  0  0  0  0  0  0  0  0  0  0
    3.1307   -0.9082   -1.8490 H   0  0  0  0  0  0  0  0  0  0  0  0
    1.3454    0.5707    1.8035 H   0  0  0  0  0  0  0  0  0  0  0  0
   -3.2281    1.3051   -0.4007 H   0  0  0  0  0  0  0  0  0  0  0  0
   -2.4527    1.3403    1.2005 H   0  0  0  0  0  0  0  0  0  0  0  0
    0.0021    2.4824    1.1323 H   0  0  0  0  0  0  0  0  0  0  0  0
    0.6231    2.8267   -0.5040 H   0  0  0  0  0  0  0  0  0  0  0  0
   -1.5694   -0.6686   -1.9268 H   0  0  0  0  0  0  0  0  0  0  0  0
   -2.4388   -0.8287   -0.4077 H   0  0  0  0  0  0  0  0  0  0  0  0
    0.0706   -2.4147   -1.1473 H   0  0  0  0  0  0  0  0  0  0  0  0
   -0.4455    0.0203    0.8372 H   0  0  0  0  0  0  0  0  0  0  0  0
  1 13  1  0
  2 13  1  0
  3  4  2  0
  3  5  1  0
  4  8  1  0
  5  9  2  0
  6  7  1  0
  6 10  1  0
  7 11  1  0
  8 14  2  0
  9 14  1  0
 10 17  1  0
 11 17  1  0
 12 13  1  0
 12 15  1  0
 14 16  1  0
 15 16  1  0
 15 17  1  0
 16 18  2  0
  1 19  1  0
  1 20  1  0
  1 21  1  0
  2 22  1  0
  2 23  1  0
  2 24  1  0
  3 25  1  0
  4 26  1  0
  5 27  1  0
  6 28  1  0
  6 29  1  0
  7 30  1  0
  7 31  1  0
  8 32  1  0
  9 33  1  0
 10 34  1  0
 10 35  1  0
 11 36  1  0
 11 37  1  0
 12 38  1  0
 12 39  1  0
 13 40  1  0
 15 41  1  0
M  END
