
     RDKit          3D

 40 42  0  0  0  0  0  0  0  0999 V2000
   -3.1821   -1.7639    1.1869 C   0  0  0  0  0  0  0  0  0  0  0  0
   -0.6780    3.0275    2.6234 C   0  0  0  0  0  0  0  0  0  0  0  0
    2.8380   -0.1351    0.3602 C   0  0  0  0  0  0  0  0  0  0  0  0
    2.3080    1.1396   -1.6158 C   0  0  0  0  0  0  0  0  0  0  0  0
    4.1224    0.4177    0.3697 C   0  0  0  0  0  0  0  0  0  0  0  0
    3.5917    1.6913   -1.6092 C   0  0  0  0  0  0  0  0  0  0  0  0
   -1.8435   -2.0379   -1.5100 C   0  0  0  0  0  0  0  0  0  0  0  0
   -2.3887   -0.6055   -1.4851 C   0  0  0  0  0  0  0  0  0  0  0  0
    0.3063   -1.7910   -0.1387 C   0  0  0  0  0  0  0  0  0  0  0  0
    1.9129    0.2123   -0.6343 C   0  0  0  0  0  0  0  0  0  0  0  0
    4.4946    1.3263   -0.6158 C   0  0  0  0  0  0  0  0  0  0  0  0
   -1.1785   -2.2222   -0.1415 C   0  0  0  0  0  0  0  0  0  0  0  0
    0.4997   -0.3536   -0.6813 C   0  0  0  0  0  0  0  0  0  0  0  0
   -1.9856   -0.0586   -0.1073 C   0  0  0  0  0  0  0  0  0  0  0  0
   -0.5899    0.6138   -0.1471 C   0  0  0  0  0  0  0  0  0  0  0  0
   -0.2853    1.1853    1.2311 C   0  0  0  0  0  0  0  0  0  0  0  0
    6.0748    2.0064   -0.6034 Cl  0  0  0  0  0  0  0  0  0  0  0  0
   -1.8864   -1.2695    0.7284 N   0  0  0  0  0  0  0  0  0  0  0  0
    0.3904    0.6591    2.1041 O   0  0  0  0  0  0  0  0  0  0  0  0
   -0.8978    2.4030    1.3584 O   0  0  0  0  0  0  0  0  0  0  0  0
   -3.6634   -1.0161    1.8267 H   0  0  0  0  0  0  0  0  0  0  0  0
   -3.8747   -2.0119    0.3762 H   0  0  0  0  0  0  0  0  0  0  0  0
   -3.0451   -2.6607    1.8011 H   0  0  0  0  0  0  0  0  0  0  0  0
   -1.0851    2.4113    3.4313 H   0  0  0  0  0  0  0  0  0  0  0  0
   -1.2028    3.9869    2.6228 H   0  0  0  0  0  0  0  0  0  0  0  0
    0.3888    3.2171    2.7778 H   0  0  0  0  0  0  0  0  0  0  0  0
    2.5689   -0.8201    1.1610 H   0  0  0  0  0  0  0  0  0  0  0  0
    1.6156    1.4386   -2.4005 H   0  0  0  0  0  0  0  0  0  0  0  0
    4.8193    0.1390    1.1554 H   0  0  0  0  0  0  0  0  0  0  0  0
    3.8776    2.4031   -2.3785 H   0  0  0  0  0  0  0  0  0  0  0  0
   -1.1527   -2.2006   -2.3435 H   0  0  0  0  0  0  0  0  0  0  0  0
   -2.6758   -2.7412   -1.6330 H   0  0  0  0  0  0  0  0  0  0  0  0
   -1.9979   -0.0046   -2.3127 H   0  0  0  0  0  0  0  0  0  0  0  0
   -3.4804   -0.6294   -1.5863 H   0  0  0  0  0  0  0  0  0  0  0  0
    0.6840   -1.8770    0.8872 H   0  0  0  0  0  0  0  0  0  0  0  0
    0.8939   -2.4913   -0.7459 H   0  0  0  0  0  0  0  0  0  0  0  0
   -1.2478   -3.2565    0.2139 H   0  0  0  0  0  0  0  0  0  0  0  0
    0.3082   -0.4534   -1.7609 H   0  0  0  0  0  0  0  0  0  0  0  0
   -2.7281    0.6514    0.2763 H   0  0  0  0  0  0  0  0  0  0  0  0
   -0.6256    1.4702   -0.8364 H   0  0  0  0  0  0  0  0  0  0  0  0
  1 18  1  0
  2 20  1  0
  3  5  2  0
  3 10  1  0
  4  6  1  0
  4 10  2  0
  5 11  1  0
  6 11  2  0
  7  8  1  0
  7 12  1  0
  8 14  1  0
  9 12  1  0
  9 13  1  0
 10 13  1  0
 11 17  1  0
 12 18  1  0
 13 15  1  0
 14 15  1  0
 14 18  1  0
 15 16  1  0
 16 19  2  0
 16 20  1  0
  1 21  1  0
  1 22  1  0
  1 23  1  0
  2 24  1  0
  2 25  1  0
  2 26  1  0
  3 27  1  0
  4 28  1  0
  5 29  1  0
  6 30  1  0
  7 31  1  0
  7 32  1  0
  8 33  1  0
  8 34  1  0
  9 35  1  0
  9 36  1  0
 12 37  1  0
 13 38  1  0
 14 39  1  0
 15 40  1  0
M  END
