
     RDKit          3D

 42 43  0  0  0  0  0  0  0  0999 V2000
   -1.6232   -3.2485   -1.5387 C   0  0  0  0  0  0  0  0  0  0  0  0
   -2.3105   -2.2909    0.6473 C   0  0  0  0  0  0  0  0  0  0  0  0
    4.9816   -0.8465    0.6919 C   0  0  0  0  0  0  0  0  0  0  0  0
   -0.9580    3.2739   -0.1037 C   0  0  0  0  0  0  0  0  0  0  0  0
   -0.1710    2.7688   -1.3066 C   0  0  0  0  0  0  0  0  0  0  0  0
    1.2991    0.0615    2.5560 C   0  0  0  0  0  0  0  0  0  0  0  0
    0.1785    0.2598    1.7458 C   0  0  0  0  0  0  0  0  0  0  0  0
    2.5407   -0.2251    1.9892 C   0  0  0  0  0  0  0  0  0  0  0  0
   -2.3091    2.5931    0.0072 C   0  0  0  0  0  0  0  0  0  0  0  0
   -0.5959    1.3644   -1.7479 C   0  0  0  0  0  0  0  0  0  0  0  0
    1.5365   -0.1252   -0.1987 C   0  0  0  0  0  0  0  0  0  0  0  0
   -1.3342   -2.1380   -0.5152 C   0  0  0  0  0  0  0  0  0  0  0  0
    0.2735    0.1873    0.3463 C   0  0  0  0  0  0  0  0  0  0  0  0
    2.6639   -0.3256    0.6069 C   0  0  0  0  0  0  0  0  0  0  0  0
   -2.1631    1.0853    0.1579 C   0  0  0  0  0  0  0  0  0  0  0  0
   -0.9487    0.3971   -0.5655 C   0  0  0  0  0  0  0  0  0  0  0  0
   -1.3999   -0.8588   -1.2436 N   0  0  0  0  0  0  0  0  0  0  0  0
   -3.0022    0.4899    0.8395 O   0  0  0  0  0  0  0  0  0  0  0  0
    3.8108   -0.6132   -0.0811 O   0  0  0  0  0  0  0  0  0  0  0  0
   -2.6288   -3.1511   -1.9638 H   0  0  0  0  0  0  0  0  0  0  0  0
   -0.9013   -3.2254   -2.3632 H   0  0  0  0  0  0  0  0  0  0  0  0
   -1.5494   -4.2367   -1.0712 H   0  0  0  0  0  0  0  0  0  0  0  0
   -3.3380   -2.0668    0.3415 H   0  0  0  0  0  0  0  0  0  0  0  0
   -2.3009   -3.3196    1.0260 H   0  0  0  0  0  0  0  0  0  0  0  0
   -2.0408   -1.6508    1.4899 H   0  0  0  0  0  0  0  0  0  0  0  0
    4.8557   -1.7145    1.3475 H   0  0  0  0  0  0  0  0  0  0  0  0
    5.8000   -1.0681    0.0001 H   0  0  0  0  0  0  0  0  0  0  0  0
    5.2610    0.0447    1.2635 H   0  0  0  0  0  0  0  0  0  0  0  0
   -1.0841    4.3602   -0.1740 H   0  0  0  0  0  0  0  0  0  0  0  0
   -0.3801    3.0905    0.8102 H   0  0  0  0  0  0  0  0  0  0  0  0
   -0.3099    3.4544   -2.1516 H   0  0  0  0  0  0  0  0  0  0  0  0
    0.9000    2.7907   -1.0731 H   0  0  0  0  0  0  0  0  0  0  0  0
    1.1989    0.1234    3.6373 H   0  0  0  0  0  0  0  0  0  0  0  0
   -0.7723    0.4571    2.2381 H   0  0  0  0  0  0  0  0  0  0  0  0
    3.3843   -0.3735    2.6543 H   0  0  0  0  0  0  0  0  0  0  0  0
   -2.9280    2.7949   -0.8738 H   0  0  0  0  0  0  0  0  0  0  0  0
   -2.8360    2.9780    0.8874 H   0  0  0  0  0  0  0  0  0  0  0  0
   -1.4796    1.4735   -2.3956 H   0  0  0  0  0  0  0  0  0  0  0  0
    0.1854    0.9566   -2.4017 H   0  0  0  0  0  0  0  0  0  0  0  0
    1.6603   -0.2342   -1.2737 H   0  0  0  0  0  0  0  0  0  0  0  0
   -0.3183   -2.3208   -0.1491 H   0  0  0  0  0  0  0  0  0  0  0  0
   -0.8466   -0.9721   -2.0918 H   0  0  0  0  0  0  0  0  0  0  0  0
  1 12  1  0
  2 12  1  0
  3 19  1  0
  4  5  1  0
  4  9  1  0
  5 10  1  0
  6  7  2  0
  6  8  1  0
  7 13  1  0
  8 14  2  0
  9 15  1  0
 10 16  1  0
 11 13  2  0
 11 14  1  0
 12 17  1  0
 13 16  1  0
 14 19  1  0
 15 16  1  0
 15 18  2  0
 16 17  1  0
  1 20  1  0
  1 21  1  0
  1 22  1  0
  2 23  1  0
  2 24  1  0
  2 25  1  0
  3 26  1  0
  3 27  1  0
  3 28  1  0
  4 29  1  0
  4 30  1  0
  5 31  1  0
  5 32  1  0
  6 33  1  0
  7 34  1  0
  8 35  1  0
  9 36  1  0
  9 37  1  0
 10 38  1  0
 10 39  1  0
 11 40  1  0
 12 41  1  0
 17 42  1  0
M  END
