
     RDKit          3D

 42 44  0  0  0  0  0  0  0  0999 V2000
   -3.6719   -1.3658    1.6385 C   0  0  0  0  0  0  0  0  0  0  0  0
   -1.0582    3.7574   -1.4878 C   0  0  0  0  0  0  0  0  0  0  0  0
    2.6478   -0.0380   -0.6997 C   0  0  0  0  0  0  0  0  0  0  0  0
    2.0160    0.2641    1.6150 C   0  0  0  0  0  0  0  0  0  0  0  0
    3.9306    0.4388   -0.4184 C   0  0  0  0  0  0  0  0  0  0  0  0
    3.2963    0.7417    1.9073 C   0  0  0  0  0  0  0  0  0  0  0  0
   -2.0757   -2.4167   -0.7134 C   0  0  0  0  0  0  0  0  0  0  0  0
   -2.5142   -1.0134   -1.1312 C   0  0  0  0  0  0  0  0  0  0  0  0
   -0.0822   -1.9132    0.7883 C   0  0  0  0  0  0  0  0  0  0  0  0
    1.6780   -0.1364    0.3118 C   0  0  0  0  0  0  0  0  0  0  0  0
    4.2507    0.8260    0.8873 C   0  0  0  0  0  0  0  0  0  0  0  0
   -1.5844   -2.2527    0.7262 C   0  0  0  0  0  0  0  0  0  0  0  0
    0.2822   -0.6477   -0.0302 C   0  0  0  0  0  0  0  0  0  0  0  0
   -2.2289   -0.1285    0.0921 C   0  0  0  0  0  0  0  0  0  0  0  0
   -0.7986    0.4550    0.1122 C   0  0  0  0  0  0  0  0  0  0  0  0
   -0.6733    1.5033   -0.9769 C   0  0  0  0  0  0  0  0  0  0  0  0
   -2.2992   -1.0670    1.2335 N   0  0  0  0  0  0  0  0  0  0  0  0
    5.5963    1.3284    1.1889 N   0  0  0  0  0  4  0  0  0  0  0  0
   -0.2418    1.3013   -2.1043 O   0  0  0  0  0  0  0  0  0  0  0  0
    5.8338    1.6794    2.3539 O   0  0  0  0  0  1  0  0  0  0  0  0
    6.4179    1.3729    0.2618 O   0  0  0  0  0  0  0  0  0  0  0  0
   -1.1407    2.7030   -0.5279 O   0  0  0  0  0  0  0  0  0  0  0  0
   -4.1643   -0.4540    1.9938 H   0  0  0  0  0  0  0  0  0  0  0  0
   -3.6695   -2.0689    2.4787 H   0  0  0  0  0  0  0  0  0  0  0  0
   -4.2872   -1.7942    0.8408 H   0  0  0  0  0  0  0  0  0  0  0  0
   -0.0178    3.9277   -1.7822 H   0  0  0  0  0  0  0  0  0  0  0  0
   -1.6770    3.5286   -2.3610 H   0  0  0  0  0  0  0  0  0  0  0  0
   -1.4400    4.6701   -1.0221 H   0  0  0  0  0  0  0  0  0  0  0  0
    2.4061   -0.3242   -1.7229 H   0  0  0  0  0  0  0  0  0  0  0  0
    1.2817    0.2097    2.4175 H   0  0  0  0  0  0  0  0  0  0  0  0
    4.6586    0.5046   -1.2243 H   0  0  0  0  0  0  0  0  0  0  0  0
    3.5288    1.0423    2.9269 H   0  0  0  0  0  0  0  0  0  0  0  0
   -1.3065   -2.8195   -1.3803 H   0  0  0  0  0  0  0  0  0  0  0  0
   -2.9357   -3.0956   -0.7547 H   0  0  0  0  0  0  0  0  0  0  0  0
   -2.0007   -0.6856   -2.0393 H   0  0  0  0  0  0  0  0  0  0  0  0
   -3.5882   -1.0206   -1.3541 H   0  0  0  0  0  0  0  0  0  0  0  0
    0.1952   -1.7897    1.8431 H   0  0  0  0  0  0  0  0  0  0  0  0
    0.5066   -2.7633    0.4197 H   0  0  0  0  0  0  0  0  0  0  0  0
   -1.7696   -3.1503    1.3271 H   0  0  0  0  0  0  0  0  0  0  0  0
    0.3073   -0.9665   -1.0819 H   0  0  0  0  0  0  0  0  0  0  0  0
   -2.9600    0.6850    0.1737 H   0  0  0  0  0  0  0  0  0  0  0  0
   -0.6481    0.9724    1.0710 H   0  0  0  0  0  0  0  0  0  0  0  0
  1 17  1  0
  2 22  1  0
  3  5  2  0
  3 10  1  0
  4  6  1  0
  4 10  2  0
  5 11  1  0
  6 11  2  0
  7  8  1  0
  7 12  1  0
  8 14  1  0
  9 12  1  0
  9 13  1  0
 10 13  1  0
 11 18  1  0
 12 17  1  0
 13 15  1  0
 14 15  1  0
 14 17  1  0
 15 16  1  0
 16 19  2  0
 16 22  1  0
 18 20  1  0
 18 21  2  0
  1 23  1  0
  1 24  1  0
  1 25  1  0
  2 26  1  0
  2 27  1  0
  2 28  1  0
  3 29  1  0
  4 30  1  0
  5 31  1  0
  6 32  1  0
  7 33  1  0
  7 34  1  0
  8 35  1  0
  8 36  1  0
  9 37  1  0
  9 38  1  0
 12 39  1  0
 13 40  1  0
 14 41  1  0
 15 42  1  0
M  CHG  2  18   1  20  -1
M  END
