
     RDKit          3D

 40 41  0  0  0  0  0  0  0  0999 V2000
    4.4122    0.6533   -0.7101 C   0  0  0  0  0  0  0  0  0  0  0  0
    3.1486   -0.9266    0.5771 C   0  0  0  0  0  0  0  0  0  0  0  0
   -2.9774    3.4625   -0.5025 C   0  0  0  0  0  0  0  0  0  0  0  0
   -3.4325    2.1927   -0.1542 C   0  0  0  0  0  0  0  0  0  0  0  0
   -1.6372    3.7957   -0.3173 C   0  0  0  0  0  0  0  0  0  0  0  0
   -1.8632   -3.6582   -0.5269 C   0  0  0  0  0  0  0  0  0  0  0  0
   -2.3550   -3.9263    0.7373 C   0  0  0  0  0  0  0  0  0  0  0  0
   -2.5462    1.2543    0.3767 C   0  0  0  0  0  0  0  0  0  0  0  0
   -0.7494    2.8575    0.2135 C   0  0  0  0  0  0  0  0  0  0  0  0
   -1.0610   -2.5310   -0.7275 C   0  0  0  0  0  0  0  0  0  0  0  0
   -2.0224   -3.0464    1.7439 C   0  0  0  0  0  0  0  0  0  0  0  0
    2.0170    0.5751   -0.9879 C   0  0  0  0  0  0  0  0  0  0  0  0
    0.6923   -0.2274   -1.0938 C   0  0  0  0  0  0  0  0  0  0  0  0
   -0.2316    0.5470    1.1368 C   0  0  0  0  0  0  0  0  0  0  0  0
   -1.1923    1.5723    0.5620 C   0  0  0  0  0  0  0  0  0  0  0  0
   -0.7567   -1.6734    0.3323 C   0  0  0  0  0  0  0  0  0  0  0  0
   -1.2519   -1.9499    1.5627 N   0  0  0  0  0  0  0  0  0  0  0  0
    3.2347   -0.2173   -0.7004 N   0  0  0  0  0  0  0  0  0  0  0  0
    0.0563   -0.5482    0.1965 N   0  0  0  0  0  0  0  0  0  0  0  0
    4.3661    1.4198    0.0720 H   0  0  0  0  0  0  0  0  0  0  0  0
    5.3266    0.0670   -0.5653 H   0  0  0  0  0  0  0  0  0  0  0  0
    4.5146    1.1541   -1.6793 H   0  0  0  0  0  0  0  0  0  0  0  0
    4.0928   -1.4394    0.7956 H   0  0  0  0  0  0  0  0  0  0  0  0
    2.3905   -1.7140    0.5420 H   0  0  0  0  0  0  0  0  0  0  0  0
    2.9295   -0.2524    1.4123 H   0  0  0  0  0  0  0  0  0  0  0  0
   -3.6684    4.1930   -0.9144 H   0  0  0  0  0  0  0  0  0  0  0  0
   -4.4779    1.9306   -0.2935 H   0  0  0  0  0  0  0  0  0  0  0  0
   -1.2836    4.7883   -0.5837 H   0  0  0  0  0  0  0  0  0  0  0  0
   -2.0956   -4.3155   -1.3596 H   0  0  0  0  0  0  0  0  0  0  0  0
   -2.9766   -4.7915    0.9322 H   0  0  0  0  0  0  0  0  0  0  0  0
   -2.9142    0.2668    0.6490 H   0  0  0  0  0  0  0  0  0  0  0  0
    0.2906    3.1397    0.3571 H   0  0  0  0  0  0  0  0  0  0  0  0
   -0.7075   -2.3448   -1.7336 H   0  0  0  0  0  0  0  0  0  0  0  0
   -2.3735   -3.1975    2.7602 H   0  0  0  0  0  0  0  0  0  0  0  0
    2.1645    1.0323   -1.9759 H   0  0  0  0  0  0  0  0  0  0  0  0
    1.9276    1.4070   -0.2832 H   0  0  0  0  0  0  0  0  0  0  0  0
   -0.0173    0.3355   -1.7128 H   0  0  0  0  0  0  0  0  0  0  0  0
    0.9435   -1.1351   -1.6540 H   0  0  0  0  0  0  0  0  0  0  0  0
    0.7073    1.0410    1.4120 H   0  0  0  0  0  0  0  0  0  0  0  0
   -0.6237    0.2094    2.1046 H   0  0  0  0  0  0  0  0  0  0  0  0
  1 18  1  0
  2 18  1  0
  3  4  2  0
  3  5  1  0
  4  8  1  0
  5  9  2  0
  6  7  2  0
  6 10  1  0
  7 11  1  0
  8 15  2  0
  9 15  1  0
 10 16  2  0
 11 17  2  0
 12 13  1  0
 12 18  1  0
 13 19  1  0
 14 15  1  0
 14 19  1  0
 16 17  1  0
 16 19  1  0
  1 20  1  0
  1 21  1  0
  1 22  1  0
  2 23  1  0
  2 24  1  0
  2 25  1  0
  3 26  1  0
  4 27  1  0
  5 28  1  0
  6 29  1  0
  7 30  1  0
  8 31  1  0
  9 32  1  0
 10 33  1  0
 11 34  1  0
 12 35  1  0
 12 36  1  0
 13 37  1  0
 13 38  1  0
 14 39  1  0
 14 40  1  0
M  END
