
     RDKit          3D

 42 44  0  0  0  0  0  0  0  0999 V2000
    5.0800   -1.3211   -1.1888 C   0  0  0  0  0  0  0  0  0  0  0  0
    3.4188   -0.4045   -2.6494 C   0  0  0  0  0  0  0  0  0  0  0  0
   -2.0621   -0.0072    2.3951 C   0  0  0  0  0  0  0  0  0  0  0  0
   -1.2303    0.8464    3.1276 C   0  0  0  0  0  0  0  0  0  0  0  0
    2.4547    1.2612   -0.2566 C   0  0  0  0  0  0  0  0  0  0  0  0
    3.2711   -0.0435   -0.2431 C   0  0  0  0  0  0  0  0  0  0  0  0
   -2.6369   -1.3497    0.3335 C   0  0  0  0  0  0  0  0  0  0  0  0
   -0.4925   -0.0313    0.5472 C   0  0  0  0  0  0  0  0  0  0  0  0
    1.9708    2.1836    2.0950 C   0  0  0  0  0  0  0  0  0  0  0  0
   -4.2995    0.4671   -0.3669 C   0  0  0  0  0  0  0  0  0  0  0  0
   -1.7108   -0.4473    1.1141 C   0  0  0  0  0  0  0  0  0  0  0  0
    1.6366    1.4257    0.9895 C   0  0  0  0  0  0  0  0  0  0  0  0
   -3.3386   -0.6269   -0.8182 C   0  0  0  0  0  0  0  0  0  0  0  0
    0.3635    0.8300    1.2650 C   0  0  0  0  0  0  0  0  0  0  0  0
   -0.0281    1.2475    2.5359 C   0  0  0  0  0  0  0  0  0  0  0  0
   -5.2363   -0.8646   -1.7875 C   0  0  0  0  0  0  0  0  0  0  0  0
    0.9652    2.0684    3.0159 N   0  0  0  0  0  0  0  0  0  0  0  0
   -4.1842   -1.5763   -1.5816 N   0  0  0  0  0  0  0  0  0  0  0  0
    4.1676   -0.1950   -1.4084 N   0  0  0  0  0  0  0  0  0  0  0  0
   -6.2697   -1.2857   -2.5126 O   0  0  0  0  0  0  0  0  0  0  0  0
   -5.3886    0.3692   -1.2719 O   0  0  0  0  0  0  0  0  0  0  0  0
    4.5446   -2.2703   -1.0704 H   0  0  0  0  0  0  0  0  0  0  0  0
    5.6907   -1.1544   -0.2944 H   0  0  0  0  0  0  0  0  0  0  0  0
    5.7786   -1.4205   -2.0272 H   0  0  0  0  0  0  0  0  0  0  0  0
    2.7581   -1.2771   -2.5918 H   0  0  0  0  0  0  0  0  0  0  0  0
    2.8159    0.4729   -2.9022 H   0  0  0  0  0  0  0  0  0  0  0  0
    4.1048   -0.5503   -3.4918 H   0  0  0  0  0  0  0  0  0  0  0  0
   -3.0000   -0.3284    2.8452 H   0  0  0  0  0  0  0  0  0  0  0  0
   -1.5137    1.1807    4.1203 H   0  0  0  0  0  0  0  0  0  0  0  0
    1.7795    1.2889   -1.1195 H   0  0  0  0  0  0  0  0  0  0  0  0
    3.1329    2.1179   -0.3609 H   0  0  0  0  0  0  0  0  0  0  0  0
    3.8816   -0.0377    0.6705 H   0  0  0  0  0  0  0  0  0  0  0  0
    2.6000   -0.9092   -0.1594 H   0  0  0  0  0  0  0  0  0  0  0  0
   -2.0539   -2.1935   -0.0590 H   0  0  0  0  0  0  0  0  0  0  0  0
   -3.3797   -1.8016    1.0043 H   0  0  0  0  0  0  0  0  0  0  0  0
   -0.2032   -0.3706   -0.4438 H   0  0  0  0  0  0  0  0  0  0  0  0
    2.8405    2.7932    2.3020 H   0  0  0  0  0  0  0  0  0  0  0  0
   -3.8456    1.4607   -0.4332 H   0  0  0  0  0  0  0  0  0  0  0  0
   -4.6808    0.3192    0.6494 H   0  0  0  0  0  0  0  0  0  0  0  0
   -2.5985   -0.2086   -1.5132 H   0  0  0  0  0  0  0  0  0  0  0  0
    0.9495    2.5185    3.9203 H   0  0  0  0  0  0  0  0  0  0  0  0
   -6.0521   -2.1759   -2.8295 H   0  0  0  0  0  0  0  0  0  0  0  0
  1 19  1  0
  2 19  1  0
  3  4  2  0
  3 11  1  0
  4 15  1  0
  5  6  1  0
  5 12  1  0
  6 19  1  0
  7 11  1  0
  7 13  1  0
  8 11  2  0
  8 14  1  0
  9 12  2  0
  9 17  1  0
 10 13  1  0
 10 21  1  0
 12 14  1  0
 13 18  1  0
 14 15  2  0
 15 17  1  0
 16 18  2  0
 16 20  1  0
 16 21  1  0
  1 22  1  0
  1 23  1  0
  1 24  1  0
  2 25  1  0
  2 26  1  0
  2 27  1  0
  3 28  1  0
  4 29  1  0
  5 30  1  0
  5 31  1  0
  6 32  1  0
  6 33  1  0
  7 34  1  0
  7 35  1  0
  8 36  1  0
  9 37  1  0
 10 38  1  0
 10 39  1  0
 13 40  1  0
 17 41  1  0
 20 42  1  0
M  END
