
     RDKit          3D

 42 43  0  0  0  0  0  0  0  0999 V2000
    4.3156    2.0656    0.3722 C   0  0  0  0  0  0  0  0  0  0  0  0
    3.9023   -0.1216    1.5263 C   0  0  0  0  0  0  0  0  0  0  0  0
   -2.9044   -1.7699   -2.2020 C   0  0  0  0  0  0  0  0  0  0  0  0
   -3.1201   -2.7517   -1.0556 C   0  0  0  0  0  0  0  0  0  0  0  0
   -2.0967   -0.5595   -1.7356 C   0  0  0  0  0  0  0  0  0  0  0  0
   -1.2129    2.2255    0.3115 C   0  0  0  0  0  0  0  0  0  0  0  0
   -0.2936    0.6171    1.8685 C   0  0  0  0  0  0  0  0  0  0  0  0
   -1.7337    2.9575    1.3798 C   0  0  0  0  0  0  0  0  0  0  0  0
   -0.8154    1.3511    2.9344 C   0  0  0  0  0  0  0  0  0  0  0  0
   -1.8007   -3.0964   -0.3698 C   0  0  0  0  0  0  0  0  0  0  0  0
    3.6684    0.6908    0.2576 C   0  0  0  0  0  0  0  0  0  0  0  0
   -0.4856    1.0443    0.5418 C   0  0  0  0  0  0  0  0  0  0  0  0
   -1.5301    2.5140    2.6802 C   0  0  0  0  0  0  0  0  0  0  0  0
   -0.7860   -0.9921   -1.0420 C   0  0  0  0  0  0  0  0  0  0  0  0
    0.0736    0.2507   -0.6420 C   0  0  0  0  0  0  0  0  0  0  0  0
    1.5554   -0.1155   -0.5078 C   0  0  0  0  0  0  0  0  0  0  0  0
   -2.0316    3.2181    3.7034 F   0  0  0  0  0  0  0  0  0  0  0  0
   -1.1019   -1.8933    0.0886 N   0  0  0  0  0  0  0  0  0  0  0  0
    2.0740   -1.1369   -0.9414 O   0  0  0  0  0  0  0  0  0  0  0  0
    2.2566    0.9029    0.0754 O   0  0  0  0  0  0  0  0  0  0  0  0
    4.1246    2.6527   -0.5328 H   0  0  0  0  0  0  0  0  0  0  0  0
    3.8914    2.6317    1.2091 H   0  0  0  0  0  0  0  0  0  0  0  0
    5.3976    1.9859    0.5141 H   0  0  0  0  0  0  0  0  0  0  0  0
    3.4455    0.3674    2.3939 H   0  0  0  0  0  0  0  0  0  0  0  0
    3.4416   -1.1117    1.4472 H   0  0  0  0  0  0  0  0  0  0  0  0
    4.9711   -0.2547    1.7199 H   0  0  0  0  0  0  0  0  0  0  0  0
   -2.3696   -2.2723   -3.0175 H   0  0  0  0  0  0  0  0  0  0  0  0
   -3.8701   -1.4443   -2.6040 H   0  0  0  0  0  0  0  0  0  0  0  0
   -3.5929   -3.6651   -1.4336 H   0  0  0  0  0  0  0  0  0  0  0  0
   -3.8111   -2.3125   -0.3248 H   0  0  0  0  0  0  0  0  0  0  0  0
   -2.7148    0.0360   -1.0524 H   0  0  0  0  0  0  0  0  0  0  0  0
   -1.8733    0.0747   -2.6017 H   0  0  0  0  0  0  0  0  0  0  0  0
   -1.3784    2.5856   -0.7018 H   0  0  0  0  0  0  0  0  0  0  0  0
    0.2655   -0.2936    2.0801 H   0  0  0  0  0  0  0  0  0  0  0  0
   -2.2944    3.8703    1.2064 H   0  0  0  0  0  0  0  0  0  0  0  0
   -0.6669    1.0232    3.9582 H   0  0  0  0  0  0  0  0  0  0  0  0
   -1.9979   -3.7400    0.4945 H   0  0  0  0  0  0  0  0  0  0  0  0
   -1.1549   -3.6698   -1.0457 H   0  0  0  0  0  0  0  0  0  0  0  0
    4.0949    0.1773   -0.6124 H   0  0  0  0  0  0  0  0  0  0  0  0
   -0.2083   -1.5683   -1.7781 H   0  0  0  0  0  0  0  0  0  0  0  0
    0.0751    0.9258   -1.5119 H   0  0  0  0  0  0  0  0  0  0  0  0
   -1.7078   -1.3990    0.7466 H   0  0  0  0  0  0  0  0  0  0  0  0
  1 11  1  0
  2 11  1  0
  3  4  1  0
  3  5  1  0
  4 10  1  0
  5 14  1  0
  6  8  2  0
  6 12  1  0
  7  9  1  0
  7 12  2  0
  8 13  1  0
  9 13  2  0
 10 18  1  0
 11 20  1  0
 12 15  1  0
 13 17  1  0
 14 15  1  0
 14 18  1  0
 15 16  1  0
 16 19  2  0
 16 20  1  0
  1 21  1  0
  1 22  1  0
  1 23  1  0
  2 24  1  0
  2 25  1  0
  2 26  1  0
  3 27  1  0
  3 28  1  0
  4 29  1  0
  4 30  1  0
  5 31  1  0
  5 32  1  0
  6 33  1  0
  7 34  1  0
  8 35  1  0
  9 36  1  0
 10 37  1  0
 10 38  1  0
 11 39  1  0
 14 40  1  0
 15 41  1  0
 18 42  1  0
M  END
