
     RDKit          3D

 42 44  0  0  0  0  0  0  0  0999 V2000
    3.6646   -2.8413   -0.3414 C   0  0  0  0  0  0  0  0  0  0  0  0
    3.1129   -1.6935    0.4905 C   0  0  0  0  0  0  0  0  0  0  0  0
    0.3591    3.8848   -0.3935 C   0  0  0  0  0  0  0  0  0  0  0  0
    0.0500    2.8634   -1.4898 C   0  0  0  0  0  0  0  0  0  0  0  0
    0.6724    3.2374    0.9562 C   0  0  0  0  0  0  0  0  0  0  0  0
   -1.6353   -0.2555   -1.2984 C   0  0  0  0  0  0  0  0  0  0  0  0
   -2.7480   -1.1012   -1.4122 C   0  0  0  0  0  0  0  0  0  0  0  0
    0.7725    1.5435   -1.2285 C   0  0  0  0  0  0  0  0  0  0  0  0
   -0.1021    1.9343    1.1327 C   0  0  0  0  0  0  0  0  0  0  0  0
    1.9336   -1.0130   -0.2099 C   0  0  0  0  0  0  0  0  0  0  0  0
   -1.4232   -0.8025    1.0542 C   0  0  0  0  0  0  0  0  0  0  0  0
   -4.1618   -3.0055    1.1777 C   0  0  0  0  0  0  0  0  0  0  0  0
   -0.9452   -0.0898   -0.0712 C   0  0  0  0  0  0  0  0  0  0  0  0
   -3.1641   -1.7744   -0.2883 C   0  0  0  0  0  0  0  0  0  0  0  0
   -2.5197   -1.6281    0.9130 C   0  0  0  0  0  0  0  0  0  0  0  0
    0.2857    0.8375    0.0808 C   0  0  0  0  0  0  0  0  0  0  0  0
    1.4486    0.0875    0.6266 N   0  0  0  0  0  0  0  0  0  0  0  0
   -4.2177   -2.6296   -0.2140 O   0  0  0  0  0  0  0  0  0  0  0  0
   -3.0852   -2.3728    1.9006 O   0  0  0  0  0  0  0  0  0  0  0  0
    4.5054   -3.3141    0.1757 H   0  0  0  0  0  0  0  0  0  0  0  0
    4.0204   -2.4855   -1.3137 H   0  0  0  0  0  0  0  0  0  0  0  0
    2.8989   -3.6044   -0.5134 H   0  0  0  0  0  0  0  0  0  0  0  0
    2.7993   -2.0810    1.4675 H   0  0  0  0  0  0  0  0  0  0  0  0
    3.9137   -0.9660    0.6711 H   0  0  0  0  0  0  0  0  0  0  0  0
   -0.4959    4.5642   -0.2933 H   0  0  0  0  0  0  0  0  0  0  0  0
    1.2115    4.5071   -0.6917 H   0  0  0  0  0  0  0  0  0  0  0  0
   -1.0321    2.6959   -1.5425 H   0  0  0  0  0  0  0  0  0  0  0  0
    0.3493    3.2722   -2.4617 H   0  0  0  0  0  0  0  0  0  0  0  0
    0.4242    3.9375    1.7620 H   0  0  0  0  0  0  0  0  0  0  0  0
    1.7487    3.0412    1.0348 H   0  0  0  0  0  0  0  0  0  0  0  0
   -1.3272    0.2744   -2.1953 H   0  0  0  0  0  0  0  0  0  0  0  0
   -3.2669   -1.2198   -2.3569 H   0  0  0  0  0  0  0  0  0  0  0  0
    0.6974    0.8874   -2.1025 H   0  0  0  0  0  0  0  0  0  0  0  0
    1.8437    1.7838   -1.1495 H   0  0  0  0  0  0  0  0  0  0  0  0
   -1.1738    2.1705    1.0597 H   0  0  0  0  0  0  0  0  0  0  0  0
    0.0448    1.5658    2.1569 H   0  0  0  0  0  0  0  0  0  0  0  0
    2.2709   -0.6442   -1.1842 H   0  0  0  0  0  0  0  0  0  0  0  0
    1.1480   -1.7566   -0.3821 H   0  0  0  0  0  0  0  0  0  0  0  0
   -0.9503   -0.7146    2.0265 H   0  0  0  0  0  0  0  0  0  0  0  0
   -5.1110   -2.7325    1.6531 H   0  0  0  0  0  0  0  0  0  0  0  0
   -4.0362   -4.0925    1.2425 H   0  0  0  0  0  0  0  0  0  0  0  0
    1.2198   -0.2698    1.5517 H   0  0  0  0  0  0  0  0  0  0  0  0
  1  2  1  0
  2 10  1  0
  3  4  1  0
  3  5  1  0
  4  8  1  0
  5  9  1  0
  6  7  2  0
  6 13  1  0
  7 14  1  0
  8 16  1  0
  9 16  1  0
 10 17  1  0
 11 13  2  0
 11 15  1  0
 12 18  1  0
 12 19  1  0
 13 16  1  0
 14 15  2  0
 14 18  1  0
 15 19  1  0
 16 17  1  0
  1 20  1  0
  1 21  1  0
  1 22  1  0
  2 23  1  0
  2 24  1  0
  3 25  1  0
  3 26  1  0
  4 27  1  0
  4 28  1  0
  5 29  1  0
  5 30  1  0
  6 31  1  0
  7 32  1  0
  8 33  1  0
  8 34  1  0
  9 35  1  0
  9 36  1  0
 10 37  1  0
 10 38  1  0
 11 39  1  0
 12 40  1  0
 12 41  1  0
 17 42  1  0
M  END
