
     RDKit          3D

 43 44  0  0  0  0  0  0  0  0999 V2000
   -4.3369   -1.5063   -1.1204 C   0  0  0  0  0  0  0  0  0  0  0  0
   -2.4690    0.6831    3.0963 C   0  0  0  0  0  0  0  0  0  0  0  0
   -0.6035   -1.7691    1.7504 C   0  0  0  0  0  0  0  0  0  0  0  0
   -3.1622   -0.7419   -0.5277 C   0  0  0  0  0  0  0  0  0  0  0  0
   -1.6763    1.3477    1.9825 C   0  0  0  0  0  0  0  0  0  0  0  0
   -1.8292   -1.3706   -0.9288 C   0  0  0  0  0  0  0  0  0  0  0  0
    3.1430   -1.0984   -1.3957 C   0  0  0  0  0  0  0  0  0  0  0  0
    4.3608   -0.4209   -1.5176 C   0  0  0  0  0  0  0  0  0  0  0  0
   -0.3208    0.6970    1.6914 C   0  0  0  0  0  0  0  0  0  0  0  0
    1.9251    1.0075   -1.2816 C   0  0  0  0  0  0  0  0  0  0  0  0
    4.7619    3.0705   -1.5703 C   0  0  0  0  0  0  0  0  0  0  0  0
    1.9222   -0.3927   -1.2677 C   0  0  0  0  0  0  0  0  0  0  0  0
   -0.5792   -0.5864   -0.4523 C   0  0  0  0  0  0  0  0  0  0  0  0
    4.3259    0.9547   -1.5155 C   0  0  0  0  0  0  0  0  0  0  0  0
    3.1430    1.6465   -1.4025 C   0  0  0  0  0  0  0  0  0  0  0  0
    0.6655   -1.1957   -1.1493 C   0  0  0  0  0  0  0  0  0  0  0  0
   -0.2982   -0.5770    0.9896 N   0  0  0  0  0  0  0  0  0  0  0  0
    0.6783   -2.3484   -1.5883 O   0  0  0  0  0  0  0  0  0  0  0  0
    5.4011    1.7787   -1.6256 O   0  0  0  0  0  0  0  0  0  0  0  0
    3.3271    2.9944   -1.4302 O   0  0  0  0  0  0  0  0  0  0  0  0
   -5.2812   -1.0419   -0.8195 H   0  0  0  0  0  0  0  0  0  0  0  0
   -4.3433   -2.5448   -0.7745 H   0  0  0  0  0  0  0  0  0  0  0  0
   -4.2930   -1.5080   -2.2142 H   0  0  0  0  0  0  0  0  0  0  0  0
   -2.8236   -0.3096    2.8143 H   0  0  0  0  0  0  0  0  0  0  0  0
   -1.8669    0.5901    4.0057 H   0  0  0  0  0  0  0  0  0  0  0  0
   -3.3501    1.2868    3.3376 H   0  0  0  0  0  0  0  0  0  0  0  0
   -0.1651   -1.7201    2.7534 H   0  0  0  0  0  0  0  0  0  0  0  0
   -0.1712   -2.6563    1.2747 H   0  0  0  0  0  0  0  0  0  0  0  0
   -1.6774   -1.9366    1.8609 H   0  0  0  0  0  0  0  0  0  0  0  0
   -3.2694   -0.7348    0.5591 H   0  0  0  0  0  0  0  0  0  0  0  0
   -3.2034    0.2969   -0.8739 H   0  0  0  0  0  0  0  0  0  0  0  0
   -1.4866    2.3851    2.2874 H   0  0  0  0  0  0  0  0  0  0  0  0
   -2.2803    1.4124    1.0730 H   0  0  0  0  0  0  0  0  0  0  0  0
   -1.7983   -1.4302   -2.0260 H   0  0  0  0  0  0  0  0  0  0  0  0
   -1.7927   -2.4110   -0.5816 H   0  0  0  0  0  0  0  0  0  0  0  0
    3.1409   -2.1879   -1.3960 H   0  0  0  0  0  0  0  0  0  0  0  0
    5.2968   -0.9597   -1.6121 H   0  0  0  0  0  0  0  0  0  0  0  0
    0.2678    1.4178    1.1111 H   0  0  0  0  0  0  0  0  0  0  0  0
    0.2349    0.5988    2.6333 H   0  0  0  0  0  0  0  0  0  0  0  0
    1.0240    1.6018   -1.2141 H   0  0  0  0  0  0  0  0  0  0  0  0
    4.9954    3.6173   -2.4912 H   0  0  0  0  0  0  0  0  0  0  0  0
    5.1681    3.6270   -0.7179 H   0  0  0  0  0  0  0  0  0  0  0  0
   -0.7040    0.4341   -0.8296 H   0  0  0  0  0  0  0  0  0  0  0  0
  1  4  1  0
  2  5  1  0
  3 17  1  0
  4  6  1  0
  5  9  1  0
  6 13  1  0
  7  8  2  0
  7 12  1  0
  8 14  1  0
  9 17  1  0
 10 12  2  0
 10 15  1  0
 11 19  1  0
 11 20  1  0
 12 16  1  0
 13 16  1  0
 13 17  1  0
 14 15  2  0
 14 19  1  0
 15 20  1  0
 16 18  2  0
  1 21  1  0
  1 22  1  0
  1 23  1  0
  2 24  1  0
  2 25  1  0
  2 26  1  0
  3 27  1  0
  3 28  1  0
  3 29  1  0
  4 30  1  0
  4 31  1  0
  5 32  1  0
  5 33  1  0
  6 34  1  0
  6 35  1  0
  7 36  1  0
  8 37  1  0
  9 38  1  0
  9 39  1  0
 10 40  1  0
 11 41  1  0
 11 42  1  0
 13 43  1  0
M  END
