
     RDKit          3D

 42 43  0  0  0  0  0  0  0  0999 V2000
    5.4590   -1.0385    0.1795 C   0  0  0  0  0  0  0  0  0  0  0  0
    0.1232    2.8096    0.2330 C   0  0  0  0  0  0  0  0  0  0  0  0
    4.3563   -0.8988   -0.8580 C   0  0  0  0  0  0  0  0  0  0  0  0
    1.0407    2.1413   -0.7873 C   0  0  0  0  0  0  0  0  0  0  0  0
    3.1555   -0.1318   -0.3004 C   0  0  0  0  0  0  0  0  0  0  0  0
   -5.2342    0.0773    0.4182 C   0  0  0  0  0  0  0  0  0  0  0  0
   -5.3532   -0.0658    1.7982 C   0  0  0  0  0  0  0  0  0  0  0  0
   -4.0282   -0.2185   -0.2281 C   0  0  0  0  0  0  0  0  0  0  0  0
   -4.2754   -0.5066    2.5715 C   0  0  0  0  0  0  0  0  0  0  0  0
   -0.9497   -1.0563   -1.1543 C   0  0  0  0  0  0  0  0  0  0  0  0
    2.0462   -0.0012   -1.3537 C   0  0  0  0  0  0  0  0  0  0  0  0
   -0.3584    0.3072   -1.5651 C   0  0  0  0  0  0  0  0  0  0  0  0
   -0.9698   -1.3964    1.3930 C   0  0  0  0  0  0  0  0  0  0  0  0
   -1.5813   -1.0450    0.2053 C   0  0  0  0  0  0  0  0  0  0  0  0
   -2.9251   -0.6667    0.5279 C   0  0  0  0  0  0  0  0  0  0  0  0
   -3.0771   -0.7985    1.9086 C   0  0  0  0  0  0  0  0  0  0  0  0
   -1.8735   -1.2387    2.4069 N   0  0  0  0  0  0  0  0  0  0  0  0
    0.8588    0.6798   -0.8064 N   0  0  0  0  0  0  0  0  0  0  0  0
    5.1022   -1.5818    1.0602 H   0  0  0  0  0  0  0  0  0  0  0  0
    6.3063   -1.5900   -0.2399 H   0  0  0  0  0  0  0  0  0  0  0  0
    5.8195   -0.0570    0.5035 H   0  0  0  0  0  0  0  0  0  0  0  0
    0.2755    2.3874    1.2322 H   0  0  0  0  0  0  0  0  0  0  0  0
   -0.9345    2.7053   -0.0250 H   0  0  0  0  0  0  0  0  0  0  0  0
    0.3442    3.8808    0.2859 H   0  0  0  0  0  0  0  0  0  0  0  0
    4.7535   -0.3789   -1.7376 H   0  0  0  0  0  0  0  0  0  0  0  0
    4.0426   -1.8971   -1.1845 H   0  0  0  0  0  0  0  0  0  0  0  0
    2.0645    2.4015   -0.4969 H   0  0  0  0  0  0  0  0  0  0  0  0
    0.8837    2.5737   -1.7835 H   0  0  0  0  0  0  0  0  0  0  0  0
    3.4907    0.8545    0.0386 H   0  0  0  0  0  0  0  0  0  0  0  0
    2.7642   -0.6583    0.5794 H   0  0  0  0  0  0  0  0  0  0  0  0
   -6.0842    0.4224   -0.1648 H   0  0  0  0  0  0  0  0  0  0  0  0
   -6.2977    0.1694    2.2831 H   0  0  0  0  0  0  0  0  0  0  0  0
   -3.9466   -0.1019   -1.3041 H   0  0  0  0  0  0  0  0  0  0  0  0
   -4.3700   -0.6154    3.6467 H   0  0  0  0  0  0  0  0  0  0  0  0
   -0.1917   -1.8465   -1.2009 H   0  0  0  0  0  0  0  0  0  0  0  0
   -1.7125   -1.3364   -1.8923 H   0  0  0  0  0  0  0  0  0  0  0  0
    1.7901   -1.0180   -1.6741 H   0  0  0  0  0  0  0  0  0  0  0  0
    2.4174    0.5174   -2.2474 H   0  0  0  0  0  0  0  0  0  0  0  0
   -0.1371    0.2985   -2.6409 H   0  0  0  0  0  0  0  0  0  0  0  0
   -1.1468    1.0571   -1.4310 H   0  0  0  0  0  0  0  0  0  0  0  0
    0.0401   -1.7263    1.5973 H   0  0  0  0  0  0  0  0  0  0  0  0
   -1.6873   -1.4129    3.3840 H   0  0  0  0  0  0  0  0  0  0  0  0
  1  3  1  0
  2  4  1  0
  3  5  1  0
  4 18  1  0
  5 11  1  0
  6  7  2  0
  6  8  1  0
  7  9  1  0
  8 15  2  0
  9 16  2  0
 10 12  1  0
 10 14  1  0
 11 18  1  0
 12 18  1  0
 13 14  2  0
 13 17  1  0
 14 15  1  0
 15 16  1  0
 16 17  1  0
  1 19  1  0
  1 20  1  0
  1 21  1  0
  2 22  1  0
  2 23  1  0
  2 24  1  0
  3 25  1  0
  3 26  1  0
  4 27  1  0
  4 28  1  0
  5 29  1  0
  5 30  1  0
  6 31  1  0
  7 32  1  0
  8 33  1  0
  9 34  1  0
 10 35  1  0
 10 36  1  0
 11 37  1  0
 11 38  1  0
 12 39  1  0
 12 40  1  0
 13 41  1  0
 17 42  1  0
M  END
