
     RDKit          3D

 43 44  0  0  0  0  0  0  0  0999 V2000
    5.3730    2.6484    1.2070 C   0  0  0  0  0  0  0  0  0  0  0  0
   -5.0297    0.0485   -0.0711 C   0  0  0  0  0  0  0  0  0  0  0  0
   -3.6416    2.0279    0.6285 C   0  0  0  0  0  0  0  0  0  0  0  0
   -2.4120   -0.0864    2.6145 C   0  0  0  0  0  0  0  0  0  0  0  0
    4.9349    1.7364    0.0750 C   0  0  0  0  0  0  0  0  0  0  0  0
    3.6361   -0.0610   -1.7018 C   0  0  0  0  0  0  0  0  0  0  0  0
    2.9590   -0.9491   -2.5489 C   0  0  0  0  0  0  0  0  0  0  0  0
   -1.0875   -1.6717    0.3306 C   0  0  0  0  0  0  0  0  0  0  0  0
   -1.9628   -0.4067    0.2478 C   0  0  0  0  0  0  0  0  0  0  0  0
    1.8493   -0.1825   -0.0747 C   0  0  0  0  0  0  0  0  0  0  0  0
   -0.2557   -2.5048   -1.9571 C   0  0  0  0  0  0  0  0  0  0  0  0
   -4.0926    0.6115    1.0061 C   0  0  0  0  0  0  0  0  0  0  0  0
   -0.1118   -1.7558   -0.8053 C   0  0  0  0  0  0  0  0  0  0  0  0
    3.0934    0.3229   -0.4763 C   0  0  0  0  0  0  0  0  0  0  0  0
    1.1450   -1.0767   -0.9072 C   0  0  0  0  0  0  0  0  0  0  0  0
    1.7188   -1.4378   -2.1250 C   0  0  0  0  0  0  0  0  0  0  0  0
    0.8489   -2.3068   -2.7403 N   0  0  0  0  0  0  0  0  0  0  0  0
   -3.0021   -0.3468    1.2974 N   0  0  0  0  0  0  0  0  0  0  0  0
    3.6685    1.1810    0.4232 O   0  0  0  0  0  0  0  0  0  0  0  0
    5.4503    2.0887    2.1450 H   0  0  0  0  0  0  0  0  0  0  0  0
    4.6366    3.4424    1.3693 H   0  0  0  0  0  0  0  0  0  0  0  0
    6.3421    3.1049    0.9872 H   0  0  0  0  0  0  0  0  0  0  0  0
   -5.9273    0.6715   -0.1564 H   0  0  0  0  0  0  0  0  0  0  0  0
   -4.5601    0.0156   -1.0590 H   0  0  0  0  0  0  0  0  0  0  0  0
   -5.3586   -0.9646    0.1861 H   0  0  0  0  0  0  0  0  0  0  0  0
   -4.5114    2.6852    0.5182 H   0  0  0  0  0  0  0  0  0  0  0  0
   -3.0010    2.4652    1.4006 H   0  0  0  0  0  0  0  0  0  0  0  0
   -3.0972    2.0459   -0.3213 H   0  0  0  0  0  0  0  0  0  0  0  0
   -1.7430   -0.8982    2.9159 H   0  0  0  0  0  0  0  0  0  0  0  0
   -1.8471    0.8514    2.6421 H   0  0  0  0  0  0  0  0  0  0  0  0
   -3.1882   -0.0425    3.3870 H   0  0  0  0  0  0  0  0  0  0  0  0
    5.6782    0.9407   -0.0508 H   0  0  0  0  0  0  0  0  0  0  0  0
    4.8521    2.3249   -0.8461 H   0  0  0  0  0  0  0  0  0  0  0  0
    4.5975    0.3136   -2.0380 H   0  0  0  0  0  0  0  0  0  0  0  0
    3.3889   -1.2432   -3.5008 H   0  0  0  0  0  0  0  0  0  0  0  0
   -0.5253   -1.6972    1.2709 H   0  0  0  0  0  0  0  0  0  0  0  0
   -1.7290   -2.5624    0.3238 H   0  0  0  0  0  0  0  0  0  0  0  0
   -1.3276    0.4884    0.2803 H   0  0  0  0  0  0  0  0  0  0  0  0
   -2.4339   -0.4112   -0.7421 H   0  0  0  0  0  0  0  0  0  0  0  0
    1.4304    0.1179    0.8811 H   0  0  0  0  0  0  0  0  0  0  0  0
   -1.0518   -3.1614   -2.2825 H   0  0  0  0  0  0  0  0  0  0  0  0
   -4.7135    0.6972    1.9085 H   0  0  0  0  0  0  0  0  0  0  0  0
    1.0078   -2.7350   -3.6415 H   0  0  0  0  0  0  0  0  0  0  0  0
  1  5  1  0
  2 12  1  0
  3 12  1  0
  4 18  1  0
  5 19  1  0
  6  7  2  0
  6 14  1  0
  7 16  1  0
  8  9  1  0
  8 13  1  0
  9 18  1  0
 10 14  2  0
 10 15  1  0
 11 13  2  0
 11 17  1  0
 12 18  1  0
 13 15  1  0
 14 19  1  0
 15 16  2  0
 16 17  1  0
  1 20  1  0
  1 21  1  0
  1 22  1  0
  2 23  1  0
  2 24  1  0
  2 25  1  0
  3 26  1  0
  3 27  1  0
  3 28  1  0
  4 29  1  0
  4 30  1  0
  4 31  1  0
  5 32  1  0
  5 33  1  0
  6 34  1  0
  7 35  1  0
  8 36  1  0
  8 37  1  0
  9 38  1  0
  9 39  1  0
 10 40  1  0
 11 41  1  0
 12 42  1  0
 17 43  1  0
M  END
