
     RDKit          3D

 48 49  0  0  0  0  0  0  0  0999 V2000
   -1.9742   -2.4514    0.0099 C   0  0  0  0  0  0  0  0  0  0  0  0
   -2.9423   -1.1261    1.9205 C   0  0  0  0  0  0  0  0  0  0  0  0
   -2.8989   -0.3961   -2.4740 C   0  0  0  0  0  0  0  0  0  0  0  0
   -4.5954   -0.1946   -0.6384 C   0  0  0  0  0  0  0  0  0  0  0  0
    4.7860    2.3650    0.7169 C   0  0  0  0  0  0  0  0  0  0  0  0
    4.4962    2.6858   -0.6117 C   0  0  0  0  0  0  0  0  0  0  0  0
    3.9624    1.5101    1.4444 C   0  0  0  0  0  0  0  0  0  0  0  0
    0.2431    0.0402   -1.0737 C   0  0  0  0  0  0  0  0  0  0  0  0
   -0.8963    0.8216   -0.3893 C   0  0  0  0  0  0  0  0  0  0  0  0
    1.6701    1.5590   -2.5713 C   0  0  0  0  0  0  0  0  0  0  0  0
   -1.9646   -1.1075    0.7392 C   0  0  0  0  0  0  0  0  0  0  0  0
   -3.1984    0.2267   -1.1054 C   0  0  0  0  0  0  0  0  0  0  0  0
    1.4218    0.9191   -1.3721 C   0  0  0  0  0  0  0  0  0  0  0  0
    3.3441    2.1289   -1.1808 C   0  0  0  0  0  0  0  0  0  0  0  0
    2.8267    0.9473    0.8517 C   0  0  0  0  0  0  0  0  0  0  0  0
    2.4912    1.2715   -0.4814 C   0  0  0  0  0  0  0  0  0  0  0  0
    2.8232    2.2826   -2.4439 N   0  0  0  0  0  0  0  0  0  0  0  0
   -2.1358    0.0790   -0.1024 N   0  0  0  0  0  0  0  0  0  0  0  0
    1.3685   -2.1084    2.6585 O   0  0  0  0  0  0  0  0  0  0  0  0
    2.9529   -2.1440    0.8089 O   0  0  0  0  0  0  0  0  0  0  0  0
    3.7967   -1.2456    3.0543 O   0  0  0  0  0  0  0  0  0  0  0  0
    2.0301    0.0929    1.5736 O   0  0  0  0  0  0  0  0  0  0  0  0
    2.6318   -1.2876    2.1251 P   0  0  0  0  0  5  0  0  0  0  0  0
   -1.7097   -3.2575    0.7032 H   0  0  0  0  0  0  0  0  0  0  0  0
   -1.2394   -2.4726   -0.7998 H   0  0  0  0  0  0  0  0  0  0  0  0
   -2.9551   -2.6950   -0.4057 H   0  0  0  0  0  0  0  0  0  0  0  0
   -3.9537   -1.4217    1.6316 H   0  0  0  0  0  0  0  0  0  0  0  0
   -2.6042   -1.8462    2.6747 H   0  0  0  0  0  0  0  0  0  0  0  0
   -2.9910   -0.1463    2.4079 H   0  0  0  0  0  0  0  0  0  0  0  0
   -2.7309   -1.4740   -2.4167 H   0  0  0  0  0  0  0  0  0  0  0  0
   -2.0268    0.0683   -2.9424 H   0  0  0  0  0  0  0  0  0  0  0  0
   -3.7389   -0.2344   -3.1594 H   0  0  0  0  0  0  0  0  0  0  0  0
   -4.8564    0.2892    0.3086 H   0  0  0  0  0  0  0  0  0  0  0  0
   -5.3506    0.1203   -1.3690 H   0  0  0  0  0  0  0  0  0  0  0  0
   -4.6908   -1.2778   -0.5270 H   0  0  0  0  0  0  0  0  0  0  0  0
    5.6656    2.7941    1.1919 H   0  0  0  0  0  0  0  0  0  0  0  0
    5.1401    3.3552   -1.1737 H   0  0  0  0  0  0  0  0  0  0  0  0
    4.2086    1.2917    2.4813 H   0  0  0  0  0  0  0  0  0  0  0  0
    0.5733   -0.7951   -0.4469 H   0  0  0  0  0  0  0  0  0  0  0  0
   -0.1055   -0.4081   -2.0097 H   0  0  0  0  0  0  0  0  0  0  0  0
   -0.5234    1.2191    0.5644 H   0  0  0  0  0  0  0  0  0  0  0  0
   -1.1268    1.7178   -0.9808 H   0  0  0  0  0  0  0  0  0  0  0  0
    1.1161    1.5658   -3.5007 H   0  0  0  0  0  0  0  0  0  0  0  0
   -0.9808   -1.0324    1.2216 H   0  0  0  0  0  0  0  0  0  0  0  0
   -3.2976    1.3068   -1.2851 H   0  0  0  0  0  0  0  0  0  0  0  0
    3.2343    2.8563   -3.1675 H   0  0  0  0  0  0  0  0  0  0  0  0
    0.8476   -2.4424    1.9081 H   0  0  0  0  0  0  0  0  0  0  0  0
    3.8571   -1.9498    0.4974 H   0  0  0  0  0  0  0  0  0  0  0  0
  1 11  1  0
  2 11  1  0
  3 12  1  0
  4 12  1  0
  5  6  2  0
  5  7  1  0
  6 14  1  0
  7 15  2  0
  8  9  1  0
  8 13  1  0
  9 18  1  0
 10 13  2  0
 10 17  1  0
 11 18  1  0
 12 18  1  0
 13 16  1  0
 14 16  2  0
 14 17  1  0
 15 16  1  0
 15 22  1  0
 19 23  1  0
 20 23  1  0
 21 23  2  0
 22 23  1  0
  1 24  1  0
  1 25  1  0
  1 26  1  0
  2 27  1  0
  2 28  1  0
  2 29  1  0
  3 30  1  0
  3 31  1  0
  3 32  1  0
  4 33  1  0
  4 34  1  0
  4 35  1  0
  5 36  1  0
  6 37  1  0
  7 38  1  0
  8 39  1  0
  8 40  1  0
  9 41  1  0
  9 42  1  0
 10 43  1  0
 11 44  1  0
 12 45  1  0
 17 46  1  0
 19 47  1  0
 20 48  1  0
M  END
