
     RDKit          3D

 43 44  0  0  0  0  0  0  0  0999 V2000
   -1.4644   -3.6752    0.2659 C   0  0  0  0  0  0  0  0  0  0  0  0
    0.3048   -0.9169    1.9882 C   0  0  0  0  0  0  0  0  0  0  0  0
    3.7341    1.4666    0.2563 C   0  0  0  0  0  0  0  0  0  0  0  0
   -1.9114   -2.3609   -0.3584 C   0  0  0  0  0  0  0  0  0  0  0  0
   -3.1622    1.9184   -0.6069 C   0  0  0  0  0  0  0  0  0  0  0  0
   -2.2953    0.8546   -0.8900 C   0  0  0  0  0  0  0  0  0  0  0  0
   -2.7923    2.8965    0.3059 C   0  0  0  0  0  0  0  0  0  0  0  0
   -0.8292   -1.6898   -1.2219 C   0  0  0  0  0  0  0  0  0  0  0  0
    0.8664    0.0726   -1.7339 C   0  0  0  0  0  0  0  0  0  0  0  0
    1.9038    1.1112   -1.2798 C   0  0  0  0  0  0  0  0  0  0  0  0
   -0.6889    1.7464    0.6399 C   0  0  0  0  0  0  0  0  0  0  0  0
    2.3257   -0.4859    0.4946 C   0  0  0  0  0  0  0  0  0  0  0  0
    0.8643   -1.0014    0.5614 C   0  0  0  0  0  0  0  0  0  0  0  0
   -1.0418    0.7202   -0.2558 C   0  0  0  0  0  0  0  0  0  0  0  0
   -1.5539    2.8079    0.9163 C   0  0  0  0  0  0  0  0  0  0  0  0
   -0.0708   -0.4474   -0.5972 C   0  0  0  0  0  0  0  0  0  0  0  0
    2.3936    0.9124    0.0912 N   0  0  0  0  0  0  0  0  0  0  0  0
   -1.2008    3.7963    1.7886 O   0  0  0  0  0  0  0  0  0  0  0  0
   -2.3006   -4.1392    0.7990 H   0  0  0  0  0  0  0  0  0  0  0  0
   -0.6542   -3.5305    0.9840 H   0  0  0  0  0  0  0  0  0  0  0  0
   -1.1247   -4.3788   -0.5008 H   0  0  0  0  0  0  0  0  0  0  0  0
   -0.7620   -1.1478    2.0289 H   0  0  0  0  0  0  0  0  0  0  0  0
    0.4701    0.0588    2.4510 H   0  0  0  0  0  0  0  0  0  0  0  0
    0.8155   -1.6475    2.6270 H   0  0  0  0  0  0  0  0  0  0  0  0
    3.7479    2.5277   -0.0165 H   0  0  0  0  0  0  0  0  0  0  0  0
    4.0482    1.4076    1.3042 H   0  0  0  0  0  0  0  0  0  0  0  0
    4.4764    0.9414   -0.3554 H   0  0  0  0  0  0  0  0  0  0  0  0
   -2.2874   -1.6938    0.4219 H   0  0  0  0  0  0  0  0  0  0  0  0
   -2.7689   -2.5855   -1.0057 H   0  0  0  0  0  0  0  0  0  0  0  0
   -4.1243    1.9817   -1.1083 H   0  0  0  0  0  0  0  0  0  0  0  0
   -2.6374    0.1371   -1.6297 H   0  0  0  0  0  0  0  0  0  0  0  0
   -3.4556    3.7260    0.5287 H   0  0  0  0  0  0  0  0  0  0  0  0
   -1.2943   -1.3846   -2.1689 H   0  0  0  0  0  0  0  0  0  0  0  0
   -0.0939   -2.4475   -1.5282 H   0  0  0  0  0  0  0  0  0  0  0  0
    0.2830    0.4929   -2.5640 H   0  0  0  0  0  0  0  0  0  0  0  0
    1.4160   -0.7804   -2.1580 H   0  0  0  0  0  0  0  0  0  0  0  0
    1.4733    2.1171   -1.3510 H   0  0  0  0  0  0  0  0  0  0  0  0
    2.7297    1.0796   -2.0033 H   0  0  0  0  0  0  0  0  0  0  0  0
    0.2821    1.7410    1.1207 H   0  0  0  0  0  0  0  0  0  0  0  0
    2.7945   -0.6237    1.4776 H   0  0  0  0  0  0  0  0  0  0  0  0
    2.9032   -1.1079   -0.2038 H   0  0  0  0  0  0  0  0  0  0  0  0
    0.9832   -2.0787    0.3798 H   0  0  0  0  0  0  0  0  0  0  0  0
   -0.3017    3.6094    2.1062 H   0  0  0  0  0  0  0  0  0  0  0  0
  1  4  1  0
  2 13  1  0
  3 17  1  0
  4  8  1  0
  5  6  2  0
  5  7  1  0
  6 14  1  0
  7 15  2  0
  8 16  1  0
  9 10  1  0
  9 16  1  0
 10 17  1  0
 11 14  2  0
 11 15  1  0
 12 13  1  0
 12 17  1  0
 13 16  1  0
 14 16  1  0
 15 18  1  0
  1 19  1  0
  1 20  1  0
  1 21  1  0
  2 22  1  0
  2 23  1  0
  2 24  1  0
  3 25  1  0
  3 26  1  0
  3 27  1  0
  4 28  1  0
  4 29  1  0
  5 30  1  0
  6 31  1  0
  7 32  1  0
  8 33  1  0
  8 34  1  0
  9 35  1  0
  9 36  1  0
 10 37  1  0
 10 38  1  0
 11 39  1  0
 12 40  1  0
 12 41  1  0
 13 42  1  0
 18 43  1  0
M  END
