
     RDKit          3D

 35 38  0  0  0  0  0  0  0  0999 V2000
   -3.8170   -0.7439    1.5845 C   0  0  0  0  0  0  0  0  0  0  0  0
    3.4151   -0.7403    1.8729 C   0  0  0  0  0  0  0  0  0  0  0  0
    4.5902   -0.3582    1.2251 C   0  0  0  0  0  0  0  0  0  0  0  0
    2.1789   -0.3204    1.3813 C   0  0  0  0  0  0  0  0  0  0  0  0
    4.5336    0.4457    0.0837 C   0  0  0  0  0  0  0  0  0  0  0  0
   -1.5939   -2.2622   -1.9055 C   0  0  0  0  0  0  0  0  0  0  0  0
   -2.2087   -1.3298   -1.0671 C   0  0  0  0  0  0  0  0  0  0  0  0
    0.4929   -1.0654   -1.7011 C   0  0  0  0  0  0  0  0  0  0  0  0
   -0.8025    2.6728   -0.4816 C   0  0  0  0  0  0  0  0  0  0  0  0
   -3.2326    0.5403    1.1307 C   0  0  0  0  0  0  0  0  0  0  0  0
   -0.2483   -2.1239   -2.2209 C   0  0  0  0  0  0  0  0  0  0  0  0
    2.1232    0.4820    0.2340 C   0  0  0  0  0  0  0  0  0  0  0  0
   -0.1088   -0.1237   -0.8458 C   0  0  0  0  0  0  0  0  0  0  0  0
    3.3000    0.8717   -0.4155 C   0  0  0  0  0  0  0  0  0  0  0  0
   -1.4772   -0.2560   -0.5294 C   0  0  0  0  0  0  0  0  0  0  0  0
   -1.8838    2.0512    0.3115 C   0  0  0  0  0  0  0  0  0  0  0  0
    0.7840    0.9185   -0.2422 C   0  0  0  0  0  0  0  0  0  0  0  0
    0.5813   -3.3784   -3.3647 Br  0  0  0  0  0  0  0  0  0  0  0  0
    3.2905    1.8163   -1.8605 Cl  0  0  0  0  0  0  0  0  0  0  0  0
    0.4917    2.1589   -0.0584 N   0  0  0  0  0  0  0  0  0  0  0  0
   -3.6133    1.7204    1.5763 N   0  0  0  0  0  0  0  0  0  0  0  0
   -2.7688    2.6648    1.0667 N   0  0  0  0  0  0  0  0  0  0  0  0
   -2.1509    0.6999    0.2760 N   0  0  0  0  0  0  0  0  0  0  0  0
   -3.0606   -1.5288    1.6738 H   0  0  0  0  0  0  0  0  0  0  0  0
   -4.6058   -1.0738    0.9026 H   0  0  0  0  0  0  0  0  0  0  0  0
   -4.2702   -0.6188    2.5739 H   0  0  0  0  0  0  0  0  0  0  0  0
    3.4644   -1.3565    2.7681 H   0  0  0  0  0  0  0  0  0  0  0  0
    5.5539   -0.6820    1.6124 H   0  0  0  0  0  0  0  0  0  0  0  0
    1.2691   -0.6024    1.9052 H   0  0  0  0  0  0  0  0  0  0  0  0
    5.4568    0.7363   -0.4121 H   0  0  0  0  0  0  0  0  0  0  0  0
   -2.1799   -3.0786   -2.3225 H   0  0  0  0  0  0  0  0  0  0  0  0
   -3.2774   -1.4381   -0.9026 H   0  0  0  0  0  0  0  0  0  0  0  0
    1.5423   -0.9784   -1.9731 H   0  0  0  0  0  0  0  0  0  0  0  0
   -0.8107    3.7563   -0.3185 H   0  0  0  0  0  0  0  0  0  0  0  0
   -0.9575    2.5246   -1.5571 H   0  0  0  0  0  0  0  0  0  0  0  0
  1 10  1  0
  2  3  2  0
  2  4  1  0
  3  5  1  0
  4 12  2  0
  5 14  2  0
  6  7  2  0
  6 11  1  0
  7 15  1  0
  8 11  2  0
  8 13  1  0
  9 16  1  0
  9 20  1  0
 10 21  2  0
 10 23  1  0
 11 18  1  0
 12 14  1  0
 12 17  1  0
 13 15  2  0
 13 17  1  0
 14 19  1  0
 15 23  1  0
 16 22  2  0
 16 23  1  0
 17 20  2  0
 21 22  1  0
  1 24  1  0
  1 25  1  0
  1 26  1  0
  2 27  1  0
  3 28  1  0
  4 29  1  0
  5 30  1  0
  6 31  1  0
  7 32  1  0
  8 33  1  0
  9 34  1  0
  9 35  1  0
M  END
