
     RDKit          3D

 35 38  0  0  0  0  0  0  0  0999 V2000
   -3.8067    0.1572   -1.7925 C   0  0  0  0  0  0  0  0  0  0  0  0
    3.4679    0.6954   -1.7940 C   0  0  0  0  0  0  0  0  0  0  0  0
    4.6320    0.3462   -1.1045 C   0  0  0  0  0  0  0  0  0  0  0  0
    2.2179    0.3232   -1.2944 C   0  0  0  0  0  0  0  0  0  0  0  0
    4.5502   -0.3766    0.0870 C   0  0  0  0  0  0  0  0  0  0  0  0
   -1.7723    2.5124    1.3388 C   0  0  0  0  0  0  0  0  0  0  0  0
   -2.3117    1.3920    0.7015 C   0  0  0  0  0  0  0  0  0  0  0  0
    0.3758    1.4155    1.4431 C   0  0  0  0  0  0  0  0  0  0  0  0
   -0.6839   -2.5538    1.0244 C   0  0  0  0  0  0  0  0  0  0  0  0
   -3.1702   -0.9632   -1.0604 C   0  0  0  0  0  0  0  0  0  0  0  0
   -0.4330    2.5183    1.7110 C   0  0  0  0  0  0  0  0  0  0  0  0
    2.1412   -0.3994   -0.0985 C   0  0  0  0  0  0  0  0  0  0  0  0
   -0.1500    0.2864    0.7871 C   0  0  0  0  0  0  0  0  0  0  0  0
    3.3050   -0.7492    0.5849 C   0  0  0  0  0  0  0  0  0  0  0  0
   -1.5111    0.2713    0.4205 C   0  0  0  0  0  0  0  0  0  0  0  0
   -1.7703   -2.1816    0.0930 C   0  0  0  0  0  0  0  0  0  0  0  0
    0.8160   -0.8043    0.4357 C   0  0  0  0  0  0  0  0  0  0  0  0
    3.2479   -1.4048    1.7531 F   0  0  0  0  0  0  0  0  0  0  0  0
    0.3661    4.1775    2.6720 I   0  0  0  0  0  0  0  0  0  0  0  0
    0.5956   -2.0697    0.5274 N   0  0  0  0  0  0  0  0  0  0  0  0
   -3.4756   -2.2316   -1.2454 N   0  0  0  0  0  0  0  0  0  0  0  0
   -2.5991   -2.9936   -0.5267 N   0  0  0  0  0  0  0  0  0  0  0  0
   -2.1082   -0.8721   -0.1722 N   0  0  0  0  0  0  0  0  0  0  0  0
   -3.0898    0.9467   -2.0356 H   0  0  0  0  0  0  0  0  0  0  0  0
   -4.2224   -0.2038   -2.7395 H   0  0  0  0  0  0  0  0  0  0  0  0
   -4.6320    0.5803   -1.2129 H   0  0  0  0  0  0  0  0  0  0  0  0
    3.5371    1.2501   -2.7273 H   0  0  0  0  0  0  0  0  0  0  0  0
    5.6042    0.6338   -1.4987 H   0  0  0  0  0  0  0  0  0  0  0  0
    1.3190    0.5811   -1.8477 H   0  0  0  0  0  0  0  0  0  0  0  0
    5.4485   -0.6513    0.6315 H   0  0  0  0  0  0  0  0  0  0  0  0
   -2.4169    3.3616    1.5570 H   0  0  0  0  0  0  0  0  0  0  0  0
   -3.3782    1.4042    0.4933 H   0  0  0  0  0  0  0  0  0  0  0  0
    1.4198    1.4343    1.7501 H   0  0  0  0  0  0  0  0  0  0  0  0
   -0.6308   -3.6457    1.0999 H   0  0  0  0  0  0  0  0  0  0  0  0
   -0.8818   -2.1868    2.0387 H   0  0  0  0  0  0  0  0  0  0  0  0
  1 10  1  0
  2  3  2  0
  2  4  1  0
  3  5  1  0
  4 12  2  0
  5 14  2  0
  6  7  2  0
  6 11  1  0
  7 15  1  0
  8 11  2  0
  8 13  1  0
  9 16  1  0
  9 20  1  0
 10 21  2  0
 10 23  1  0
 11 19  1  0
 12 14  1  0
 12 17  1  0
 13 15  2  0
 13 17  1  0
 14 18  1  0
 15 23  1  0
 16 22  2  0
 16 23  1  0
 17 20  2  0
 21 22  1  0
  1 24  1  0
  1 25  1  0
  1 26  1  0
  2 27  1  0
  3 28  1  0
  4 29  1  0
  5 30  1  0
  6 31  1  0
  7 32  1  0
  8 33  1  0
  9 34  1  0
  9 35  1  0
M  END
