
     RDKit          3D

 39 41  0  0  0  0  0  0  0  0999 V2000
    5.0637    0.8771    1.2639 C   0  0  0  0  0  0  0  0  0  0  0  0
    4.1706   -0.1554    1.5501 C   0  0  0  0  0  0  0  0  0  0  0  0
    4.7067    1.8814    0.3648 C   0  0  0  0  0  0  0  0  0  0  0  0
    2.9194   -0.1911    0.9306 C   0  0  0  0  0  0  0  0  0  0  0  0
    3.4576    1.8499   -0.2570 C   0  0  0  0  0  0  0  0  0  0  0  0
   -0.2186   -3.1096   -1.6561 C   0  0  0  0  0  0  0  0  0  0  0  0
   -1.0905   -2.1964   -1.0519 C   0  0  0  0  0  0  0  0  0  0  0  0
    1.4976   -1.4281   -1.6977 C   0  0  0  0  0  0  0  0  0  0  0  0
   -0.6627    1.9425   -1.4668 C   0  0  0  0  0  0  0  0  0  0  0  0
   -2.7119   -0.4568    0.6924 C   0  0  0  0  0  0  0  0  0  0  0  0
    2.5650    0.8053    0.0117 C   0  0  0  0  0  0  0  0  0  0  0  0
    1.0681   -2.7161   -1.9894 C   0  0  0  0  0  0  0  0  0  0  0  0
    0.6312   -0.5162   -1.0613 C   0  0  0  0  0  0  0  0  0  0  0  0
   -0.7038   -0.8725   -0.7683 C   0  0  0  0  0  0  0  0  0  0  0  0
   -4.0842   -0.4712    0.0352 C   0  0  0  0  0  0  0  0  0  0  0  0
   -1.6418    1.4213   -0.4257 C   0  0  0  0  0  0  0  0  0  0  0  0
    1.2290    0.7963   -0.6685 C   0  0  0  0  0  0  0  0  0  0  0  0
    2.2425   -3.9367   -2.8239 Br  0  0  0  0  0  0  0  0  0  0  0  0
   -4.9345    1.3298    1.0808 N   0  0  0  0  0  0  0  0  0  0  0  0
    0.6721    1.9404   -0.8834 N   0  0  0  0  0  0  0  0  0  0  0  0
   -5.0996    0.3161    0.2028 N   0  0  0  0  0  0  0  0  0  0  0  0
   -1.6627    0.0384   -0.2112 N   0  0  0  0  0  0  0  0  0  0  0  0
   -4.2594   -1.4609   -0.8594 O   0  0  0  0  0  0  0  0  0  0  0  0
   -2.4145    2.1926    0.1525 O   0  0  0  0  0  0  0  0  0  0  0  0
    6.0354    0.9059    1.7511 H   0  0  0  0  0  0  0  0  0  0  0  0
    4.4462   -0.9278    2.2640 H   0  0  0  0  0  0  0  0  0  0  0  0
    5.3973    2.6937    0.1523 H   0  0  0  0  0  0  0  0  0  0  0  0
    2.2295   -0.9897    1.1882 H   0  0  0  0  0  0  0  0  0  0  0  0
    3.1817    2.6420   -0.9497 H   0  0  0  0  0  0  0  0  0  0  0  0
   -0.5676   -4.1161   -1.8755 H   0  0  0  0  0  0  0  0  0  0  0  0
   -2.0990   -2.5486   -0.8549 H   0  0  0  0  0  0  0  0  0  0  0  0
    2.5128   -1.1321   -1.9553 H   0  0  0  0  0  0  0  0  0  0  0  0
   -0.9405    2.9745   -1.7082 H   0  0  0  0  0  0  0  0  0  0  0  0
   -0.7309    1.3786   -2.4038 H   0  0  0  0  0  0  0  0  0  0  0  0
   -2.4791   -1.4625    1.0587 H   0  0  0  0  0  0  0  0  0  0  0  0
   -2.7280    0.1773    1.5856 H   0  0  0  0  0  0  0  0  0  0  0  0
   -5.7273    1.9734    1.0320 H   0  0  0  0  0  0  0  0  0  0  0  0
   -4.1068    1.9077    0.8481 H   0  0  0  0  0  0  0  0  0  0  0  0
   -5.1634   -1.3563   -1.2053 H   0  0  0  0  0  0  0  0  0  0  0  0
  1  2  2  0
  1  3  1  0
  2  4  1  0
  3  5  2  0
  4 11  2  0
  5 11  1  0
  6  7  2  0
  6 12  1  0
  7 14  1  0
  8 12  2  0
  8 13  1  0
  9 16  1  0
  9 20  1  0
 10 15  1  0
 10 22  1  0
 11 17  1  0
 12 18  1  0
 13 14  2  0
 13 17  1  0
 14 22  1  0
 15 21  2  3
 15 23  1  0
 16 22  1  0
 16 24  2  0
 17 20  2  0
 19 21  1  0
  1 25  1  0
  2 26  1  0
  3 27  1  0
  4 28  1  0
  5 29  1  0
  6 30  1  0
  7 31  1  0
  8 32  1  0
  9 33  1  0
  9 34  1  0
 10 35  1  0
 10 36  1  0
 19 37  1  0
 19 38  1  0
 23 39  1  0
M  END
