
     RDKit          3D

 40 42  0  0  0  0  0  0  0  0999 V2000
   -6.0202   -2.1394    0.8174 C   0  0  0  0  0  0  0  0  0  0  0  0
   -5.8968    0.3217    0.6972 C   0  0  0  0  0  0  0  0  0  0  0  0
    5.7534   -0.6773   -3.5365 C   0  0  0  0  0  0  0  0  0  0  0  0
    4.4956   -0.2338   -3.9366 C   0  0  0  0  0  0  0  0  0  0  0  0
    6.0692   -0.7345   -2.1815 C   0  0  0  0  0  0  0  0  0  0  0  0
    3.5533    0.1537   -2.9799 C   0  0  0  0  0  0  0  0  0  0  0  0
    5.1253   -0.3476   -1.2262 C   0  0  0  0  0  0  0  0  0  0  0  0
    1.5535    0.0398    1.4076 C   0  0  0  0  0  0  0  0  0  0  0  0
    1.2916    2.1595    0.2907 C   0  0  0  0  0  0  0  0  0  0  0  0
    2.4982   -0.3453    0.4510 C   0  0  0  0  0  0  0  0  0  0  0  0
    2.2366    1.7695   -0.6640 C   0  0  0  0  0  0  0  0  0  0  0  0
   -0.0805    1.7140    2.3695 C   0  0  0  0  0  0  0  0  0  0  0  0
    0.9421    1.2990    1.3397 C   0  0  0  0  0  0  0  0  0  0  0  0
    3.8507    0.1039   -1.6076 C   0  0  0  0  0  0  0  0  0  0  0  0
    2.8573    0.5121   -0.6005 C   0  0  0  0  0  0  0  0  0  0  0  0
   -1.3836    1.1922    1.8927 C   0  0  0  0  0  0  0  0  0  0  0  0
   -3.9910   -1.0741    1.6601 C   0  0  0  0  0  0  0  0  0  0  0  0
   -2.1687    1.8676    1.0011 N   0  0  0  0  0  0  0  0  0  0  0  0
   -1.9282    0.0483    2.3281 N   0  0  0  0  0  0  0  0  0  0  0  0
   -3.2444    1.1202    0.8073 N   0  0  0  0  0  0  0  0  0  0  0  0
   -5.2283   -0.9367    1.0081 N   0  0  0  0  0  0  0  0  0  0  0  0
   -3.0934    0.0296    1.6088 N   0  0  0  0  0  0  0  0  0  0  0  0
   -3.6368   -2.1022    2.2356 O   0  0  0  0  0  0  0  0  0  0  0  0
   -5.4099   -3.0431    0.8991 H   0  0  0  0  0  0  0  0  0  0  0  0
   -6.4744   -2.1133   -0.1777 H   0  0  0  0  0  0  0  0  0  0  0  0
   -6.8040   -2.1683    1.5801 H   0  0  0  0  0  0  0  0  0  0  0  0
   -5.6421    0.6133   -0.3252 H   0  0  0  0  0  0  0  0  0  0  0  0
   -5.6169    1.1015    1.4093 H   0  0  0  0  0  0  0  0  0  0  0  0
   -6.9814    0.1877    0.7665 H   0  0  0  0  0  0  0  0  0  0  0  0
    6.4866   -0.9789   -4.2799 H   0  0  0  0  0  0  0  0  0  0  0  0
    4.2439   -0.1915   -4.9930 H   0  0  0  0  0  0  0  0  0  0  0  0
    7.0506   -1.0779   -1.8653 H   0  0  0  0  0  0  0  0  0  0  0  0
    2.5720    0.4855   -3.3134 H   0  0  0  0  0  0  0  0  0  0  0  0
    5.3961   -0.3900   -0.1731 H   0  0  0  0  0  0  0  0  0  0  0  0
    1.2893   -0.6577    2.2010 H   0  0  0  0  0  0  0  0  0  0  0  0
    0.8290    3.1407    0.2040 H   0  0  0  0  0  0  0  0  0  0  0  0
    2.9437   -1.3357    0.5239 H   0  0  0  0  0  0  0  0  0  0  0  0
    2.4941    2.4642   -1.4612 H   0  0  0  0  0  0  0  0  0  0  0  0
   -0.1119    2.8049    2.4685 H   0  0  0  0  0  0  0  0  0  0  0  0
    0.1802    1.3100    3.3544 H   0  0  0  0  0  0  0  0  0  0  0  0
  1 21  1  0
  2 21  1  0
  3  4  2  0
  3  5  1  0
  4  6  1  0
  5  7  2  0
  6 14  2  0
  7 14  1  0
  8 10  2  0
  8 13  1  0
  9 11  1  0
  9 13  2  0
 10 15  1  0
 11 15  2  0
 12 13  1  0
 12 16  1  0
 14 15  1  0
 16 18  1  0
 16 19  2  0
 17 21  1  0
 17 22  1  0
 17 23  2  0
 18 20  2  0
 19 22  1  0
 20 22  1  0
  1 24  1  0
  1 25  1  0
  1 26  1  0
  2 27  1  0
  2 28  1  0
  2 29  1  0
  3 30  1  0
  4 31  1  0
  5 32  1  0
  6 33  1  0
  7 34  1  0
  8 35  1  0
  9 36  1  0
 10 37  1  0
 11 38  1  0
 12 39  1  0
 12 40  1  0
M  END
