
     RDKit          3D

 41 42  0  0  0  0  0  0  0  0999 V2000
   -2.2775   -2.7923   -2.0279 C   0  0  0  0  0  0  0  0  0  0  0  0
   -4.5695    2.6287    2.4570 C   0  0  0  0  0  0  0  0  0  0  0  0
    5.7707   -0.3275    0.9932 C   0  0  0  0  0  0  0  0  0  0  0  0
    6.5770    0.1560   -0.0328 C   0  0  0  0  0  0  0  0  0  0  0  0
    4.4007   -0.4964    0.7836 C   0  0  0  0  0  0  0  0  0  0  0  0
    6.0121    0.4729   -1.2676 C   0  0  0  0  0  0  0  0  0  0  0  0
   -0.5406   -0.0603    0.6564 C   0  0  0  0  0  0  0  0  0  0  0  0
    0.1605    0.7296   -0.4594 C   0  0  0  0  0  0  0  0  0  0  0  0
   -2.8629    0.7995    1.1349 C   0  0  0  0  0  0  0  0  0  0  0  0
   -4.0018   -1.0590   -0.6084 C   0  0  0  0  0  0  0  0  0  0  0  0
    2.3226   -0.3741   -0.6246 C   0  0  0  0  0  0  0  0  0  0  0  0
   -2.0410   -0.1160    0.4484 C   0  0  0  0  0  0  0  0  0  0  0  0
    3.8140   -0.1910   -0.4598 C   0  0  0  0  0  0  0  0  0  0  0  0
    4.6394    0.3048   -1.4821 C   0  0  0  0  0  0  0  0  0  0  0  0
   -4.8080   -0.1494    0.0855 C   0  0  0  0  0  0  0  0  0  0  0  0
   -2.6176   -1.0457   -0.4359 C   0  0  0  0  0  0  0  0  0  0  0  0
   -4.2496    0.7917    0.9618 C   0  0  0  0  0  0  0  0  0  0  0  0
    4.0232    0.7255   -3.0412 Cl  0  0  0  0  0  0  0  0  0  0  0  0
   -6.5179   -0.2262   -0.1799 Cl  0  0  0  0  0  0  0  0  0  0  0  0
    1.6092    0.8527   -0.2733 N   0  0  0  0  0  0  0  0  0  0  0  0
   -1.7420   -1.8874   -1.0698 O   0  0  0  0  0  0  0  0  0  0  0  0
   -5.1179    1.6434    1.5923 O   0  0  0  0  0  0  0  0  0  0  0  0
   -2.7732   -2.2566   -2.8442 H   0  0  0  0  0  0  0  0  0  0  0  0
   -2.9548   -3.5106   -1.5547 H   0  0  0  0  0  0  0  0  0  0  0  0
   -1.4432   -3.3551   -2.4576 H   0  0  0  0  0  0  0  0  0  0  0  0
   -4.0552    2.1661    3.3057 H   0  0  0  0  0  0  0  0  0  0  0  0
   -5.3979    3.2230    2.8545 H   0  0  0  0  0  0  0  0  0  0  0  0
   -3.9051    3.3074    1.9121 H   0  0  0  0  0  0  0  0  0  0  0  0
    6.2071   -0.5710    1.9589 H   0  0  0  0  0  0  0  0  0  0  0  0
    7.6435    0.2905    0.1279 H   0  0  0  0  0  0  0  0  0  0  0  0
    3.7861   -0.8704    1.6001 H   0  0  0  0  0  0  0  0  0  0  0  0
    6.6473    0.8554   -2.0628 H   0  0  0  0  0  0  0  0  0  0  0  0
   -0.1506   -1.0825    0.7272 H   0  0  0  0  0  0  0  0  0  0  0  0
   -0.3241    0.4016    1.6287 H   0  0  0  0  0  0  0  0  0  0  0  0
   -0.2498    1.7472   -0.4771 H   0  0  0  0  0  0  0  0  0  0  0  0
   -0.0612    0.3068   -1.4471 H   0  0  0  0  0  0  0  0  0  0  0  0
   -2.3881    1.5125    1.8022 H   0  0  0  0  0  0  0  0  0  0  0  0
   -4.4834   -1.7656   -1.2755 H   0  0  0  0  0  0  0  0  0  0  0  0
    2.0928   -0.6839   -1.6505 H   0  0  0  0  0  0  0  0  0  0  0  0
    2.0025   -1.2061    0.0145 H   0  0  0  0  0  0  0  0  0  0  0  0
    1.8238    1.1117    0.6873 H   0  0  0  0  0  0  0  0  0  0  0  0
  1 21  1  0
  2 22  1  0
  3  4  2  0
  3  5  1  0
  4  6  1  0
  5 13  2  0
  6 14  2  0
  7  8  1  0
  7 12  1  0
  8 20  1  0
  9 12  2  0
  9 17  1  0
 10 15  1  0
 10 16  2  0
 11 13  1  0
 11 20  1  0
 12 16  1  0
 13 14  1  0
 14 18  1  0
 15 17  2  0
 15 19  1  0
 16 21  1  0
 17 22  1  0
  1 23  1  0
  1 24  1  0
  1 25  1  0
  2 26  1  0
  2 27  1  0
  2 28  1  0
  3 29  1  0
  4 30  1  0
  5 31  1  0
  6 32  1  0
  7 33  1  0
  7 34  1  0
  8 35  1  0
  8 36  1  0
  9 37  1  0
 10 38  1  0
 11 39  1  0
 11 40  1  0
 20 41  1  0
M  END
