
     RDKit          3D

 37 39  0  0  0  0  0  0  0  0999 V2000
   -2.7717   -3.0205    0.8000 C   0  0  0  0  0  0  0  0  0  0  0  0
   -1.7333    3.9436   -0.1839 C   0  0  0  0  0  0  0  0  0  0  0  0
   -1.8621   -2.7068    1.8073 C   0  0  0  0  0  0  0  0  0  0  0  0
   -2.7289   -2.3368   -0.4130 C   0  0  0  0  0  0  0  0  0  0  0  0
   -1.5977    3.3244    1.0550 C   0  0  0  0  0  0  0  0  0  0  0  0
   -1.2365    3.3217   -1.3263 C   0  0  0  0  0  0  0  0  0  0  0  0
    3.1929   -1.1420    0.1880 C   0  0  0  0  0  0  0  0  0  0  0  0
   -0.9062   -1.7105    1.6014 C   0  0  0  0  0  0  0  0  0  0  0  0
   -1.7735   -1.3408   -0.6221 C   0  0  0  0  0  0  0  0  0  0  0  0
   -0.9629    2.0843    1.1498 C   0  0  0  0  0  0  0  0  0  0  0  0
   -0.6025    2.0795   -1.2326 C   0  0  0  0  0  0  0  0  0  0  0  0
    2.0173   -1.6227   -0.6462 C   0  0  0  0  0  0  0  0  0  0  0  0
    3.3327    0.3349   -0.1466 C   0  0  0  0  0  0  0  0  0  0  0  0
   -0.8459   -1.0171    0.3812 C   0  0  0  0  0  0  0  0  0  0  0  0
   -0.4488    1.4419    0.0076 C   0  0  0  0  0  0  0  0  0  0  0  0
    1.2266   -0.3507   -0.9619 C   0  0  0  0  0  0  0  0  0  0  0  0
    0.2152    0.0683    0.1681 C   0  0  0  0  0  0  0  0  0  0  0  0
    2.3288    0.6211   -1.1779 N   0  0  0  0  0  0  0  0  0  0  0  0
   -3.5181   -3.7934    0.9622 H   0  0  0  0  0  0  0  0  0  0  0  0
   -2.2256    4.9090   -0.2597 H   0  0  0  0  0  0  0  0  0  0  0  0
   -1.8987   -3.2362    2.7557 H   0  0  0  0  0  0  0  0  0  0  0  0
   -3.4443   -2.5739   -1.1960 H   0  0  0  0  0  0  0  0  0  0  0  0
   -1.9876    3.8035    1.9488 H   0  0  0  0  0  0  0  0  0  0  0  0
   -1.3392    3.8036   -2.2949 H   0  0  0  0  0  0  0  0  0  0  0  0
    2.9845   -1.2709    1.2561 H   0  0  0  0  0  0  0  0  0  0  0  0
    4.0999   -1.7063   -0.0512 H   0  0  0  0  0  0  0  0  0  0  0  0
   -0.2067   -1.4793    2.4015 H   0  0  0  0  0  0  0  0  0  0  0  0
   -1.7668   -0.8099   -1.5713 H   0  0  0  0  0  0  0  0  0  0  0  0
   -0.8750    1.6129    2.1263 H   0  0  0  0  0  0  0  0  0  0  0  0
   -0.2247    1.6258   -2.1442 H   0  0  0  0  0  0  0  0  0  0  0  0
    2.3955   -2.0607   -1.5796 H   0  0  0  0  0  0  0  0  0  0  0  0
    1.4450   -2.4014   -0.1360 H   0  0  0  0  0  0  0  0  0  0  0  0
    3.1456    0.9514    0.7395 H   0  0  0  0  0  0  0  0  0  0  0  0
    4.3382    0.5754   -0.5065 H   0  0  0  0  0  0  0  0  0  0  0  0
    0.6849   -0.4876   -1.9055 H   0  0  0  0  0  0  0  0  0  0  0  0
    0.8025    0.1407    1.0956 H   0  0  0  0  0  0  0  0  0  0  0  0
    2.7472    0.4253   -2.0885 H   0  0  0  0  0  0  0  0  0  0  0  0
  1  3  2  0
  1  4  1  0
  2  5  2  0
  2  6  1  0
  3  8  1  0
  4  9  2  0
  5 10  1  0
  6 11  2  0
  7 12  1  0
  7 13  1  0
  8 14  2  0
  9 14  1  0
 10 15  2  0
 11 15  1  0
 12 16  1  0
 13 18  1  0
 14 17  1  0
 15 17  1  0
 16 17  1  0
 16 18  1  0
  1 19  1  0
  2 20  1  0
  3 21  1  0
  4 22  1  0
  5 23  1  0
  6 24  1  0
  7 25  1  0
  7 26  1  0
  8 27  1  0
  9 28  1  0
 10 29  1  0
 11 30  1  0
 12 31  1  0
 12 32  1  0
 13 33  1  0
 13 34  1  0
 16 35  1  0
 17 36  1  0
 18 37  1  0
M  END
