
     RDKit          3D

 39 41  0  0  0  0  0  0  0  0999 V2000
    0.2230   -1.7856   -1.0370 C   0  0  0  0  0  0  0  0  0  0  0  0
   -6.2979    0.8696    0.3495 C   0  0  0  0  0  0  0  0  0  0  0  0
   -5.5184    1.8367   -0.2830 C   0  0  0  0  0  0  0  0  0  0  0  0
   -5.7957   -0.4168    0.5357 C   0  0  0  0  0  0  0  0  0  0  0  0
   -4.2355    1.5179   -0.7327 C   0  0  0  0  0  0  0  0  0  0  0  0
   -4.5140   -0.7373    0.0863 C   0  0  0  0  0  0  0  0  0  0  0  0
    3.1879   -1.3870    0.9871 C   0  0  0  0  0  0  0  0  0  0  0  0
    4.5625   -1.3178    0.7384 C   0  0  0  0  0  0  0  0  0  0  0  0
    0.8562   -0.3843    0.9832 C   0  0  0  0  0  0  0  0  0  0  0  0
    2.8902    0.8931    0.1856 C   0  0  0  0  0  0  0  0  0  0  0  0
   -2.3316   -0.1271   -1.0358 C   0  0  0  0  0  0  0  0  0  0  0  0
    6.2779    1.4567   -0.5704 C   0  0  0  0  0  0  0  0  0  0  0  0
   -0.0164   -0.4647   -0.2953 C   0  0  0  0  0  0  0  0  0  0  0  0
   -3.7217    0.2253   -0.5570 C   0  0  0  0  0  0  0  0  0  0  0  0
    2.3419   -0.2882    0.7120 C   0  0  0  0  0  0  0  0  0  0  0  0
    5.0616   -0.1438    0.2194 C   0  0  0  0  0  0  0  0  0  0  0  0
    4.2486    0.9313   -0.0490 C   0  0  0  0  0  0  0  0  0  0  0  0
   -1.4312   -0.3307    0.1011 N   0  0  0  0  0  0  0  0  0  0  0  0
    6.3643    0.1016   -0.0835 O   0  0  0  0  0  0  0  0  0  0  0  0
    4.9372    1.9896   -0.5546 O   0  0  0  0  0  0  0  0  0  0  0  0
   -0.3487   -1.8362   -1.9689 H   0  0  0  0  0  0  0  0  0  0  0  0
   -0.0580   -2.6459   -0.4193 H   0  0  0  0  0  0  0  0  0  0  0  0
    1.2760   -1.9000   -1.3135 H   0  0  0  0  0  0  0  0  0  0  0  0
   -7.2957    1.1192    0.7003 H   0  0  0  0  0  0  0  0  0  0  0  0
   -5.9097    2.8407   -0.4251 H   0  0  0  0  0  0  0  0  0  0  0  0
   -6.3994   -1.1706    1.0338 H   0  0  0  0  0  0  0  0  0  0  0  0
   -3.6404    2.2855   -1.2216 H   0  0  0  0  0  0  0  0  0  0  0  0
   -4.1245   -1.7411    0.2447 H   0  0  0  0  0  0  0  0  0  0  0  0
    2.7722   -2.3063    1.3961 H   0  0  0  0  0  0  0  0  0  0  0  0
    5.2144   -2.1584    0.9467 H   0  0  0  0  0  0  0  0  0  0  0  0
    0.6504   -1.2463    1.6323 H   0  0  0  0  0  0  0  0  0  0  0  0
    0.5777    0.5010    1.5720 H   0  0  0  0  0  0  0  0  0  0  0  0
    2.2740    1.7590   -0.0315 H   0  0  0  0  0  0  0  0  0  0  0  0
   -1.9573    0.6744   -1.6845 H   0  0  0  0  0  0  0  0  0  0  0  0
   -2.4064   -1.0324   -1.6486 H   0  0  0  0  0  0  0  0  0  0  0  0
    6.6533    1.4837   -1.5999 H   0  0  0  0  0  0  0  0  0  0  0  0
    6.9157    2.0944    0.0527 H   0  0  0  0  0  0  0  0  0  0  0  0
    0.2525    0.3690   -0.9564 H   0  0  0  0  0  0  0  0  0  0  0  0
   -1.5347    0.4719    0.7230 H   0  0  0  0  0  0  0  0  0  0  0  0
  1 13  1  0
  2  3  2  0
  2  4  1  0
  3  5  1  0
  4  6  2  0
  5 14  2  0
  6 14  1  0
  7  8  2  0
  7 15  1  0
  8 16  1  0
  9 13  1  0
  9 15  1  0
 10 15  2  0
 10 17  1  0
 11 14  1  0
 11 18  1  0
 12 19  1  0
 12 20  1  0
 13 18  1  0
 16 17  2  0
 16 19  1  0
 17 20  1  0
  1 21  1  0
  1 22  1  0
  1 23  1  0
  2 24  1  0
  3 25  1  0
  4 26  1  0
  5 27  1  0
  6 28  1  0
  7 29  1  0
  8 30  1  0
  9 31  1  0
  9 32  1  0
 10 33  1  0
 11 34  1  0
 11 35  1  0
 12 36  1  0
 12 37  1  0
 13 38  1  0
 18 39  1  0
M  END
