
     RDKit          3D

 39 41  0  0  0  0  0  0  0  0999 V2000
   -3.3823   -2.6317   -0.2253 C   0  0  0  0  0  0  0  0  0  0  0  0
   -1.2116    4.2220    0.5780 C   0  0  0  0  0  0  0  0  0  0  0  0
   -3.3272   -1.5043    0.5876 C   0  0  0  0  0  0  0  0  0  0  0  0
   -2.3684   -2.8662   -1.1470 C   0  0  0  0  0  0  0  0  0  0  0  0
   -1.4667    3.7529   -0.7057 C   0  0  0  0  0  0  0  0  0  0  0  0
   -0.5728    3.3982    1.4990 C   0  0  0  0  0  0  0  0  0  0  0  0
   -2.2611   -0.6055    0.4763 C   0  0  0  0  0  0  0  0  0  0  0  0
   -1.3047   -1.9672   -1.2598 C   0  0  0  0  0  0  0  0  0  0  0  0
   -1.0770    2.4613   -1.0694 C   0  0  0  0  0  0  0  0  0  0  0  0
   -0.1831    2.1048    1.1365 C   0  0  0  0  0  0  0  0  0  0  0  0
    2.9862   -2.1512    0.0767 C   0  0  0  0  0  0  0  0  0  0  0  0
    3.6397   -1.2655    1.1424 C   0  0  0  0  0  0  0  0  0  0  0  0
    2.5071    0.4687   -0.0666 C   0  0  0  0  0  0  0  0  0  0  0  0
   -1.2296   -0.8066   -0.4599 C   0  0  0  0  0  0  0  0  0  0  0  0
   -0.4128    1.6091   -0.1624 C   0  0  0  0  0  0  0  0  0  0  0  0
    1.2464   -0.4033    0.1769 C   0  0  0  0  0  0  0  0  0  0  0  0
   -0.0274    0.1701   -0.5908 C   0  0  0  0  0  0  0  0  0  0  0  0
    1.5704   -1.8359   -0.1585 N   0  0  0  0  0  0  0  0  0  0  0  0
    0.3565    0.2913   -1.9809 O   0  0  0  0  0  0  0  0  0  0  0  0
    3.5881    0.1292    0.8241 O   0  0  0  0  0  0  0  0  0  0  0  0
   -4.2111   -3.3288   -0.1361 H   0  0  0  0  0  0  0  0  0  0  0  0
   -1.5121    5.2272    0.8609 H   0  0  0  0  0  0  0  0  0  0  0  0
   -4.1160   -1.3192    1.3127 H   0  0  0  0  0  0  0  0  0  0  0  0
   -2.3979   -3.7525   -1.7757 H   0  0  0  0  0  0  0  0  0  0  0  0
   -1.9691    4.3902   -1.4287 H   0  0  0  0  0  0  0  0  0  0  0  0
   -0.3768    3.7610    2.5051 H   0  0  0  0  0  0  0  0  0  0  0  0
   -2.2643    0.2588    1.1361 H   0  0  0  0  0  0  0  0  0  0  0  0
   -0.5106   -2.1983   -1.9698 H   0  0  0  0  0  0  0  0  0  0  0  0
   -1.2966    2.1228   -2.0800 H   0  0  0  0  0  0  0  0  0  0  0  0
    0.2975    1.4975    1.8986 H   0  0  0  0  0  0  0  0  0  0  0  0
    3.0799   -3.2064    0.3545 H   0  0  0  0  0  0  0  0  0  0  0  0
    3.5186   -2.0227   -0.8732 H   0  0  0  0  0  0  0  0  0  0  0  0
    3.1530   -1.4092    2.1141 H   0  0  0  0  0  0  0  0  0  0  0  0
    4.6932   -1.5367    1.2649 H   0  0  0  0  0  0  0  0  0  0  0  0
    2.3110    1.5320    0.0903 H   0  0  0  0  0  0  0  0  0  0  0  0
    2.8721    0.3648   -1.0959 H   0  0  0  0  0  0  0  0  0  0  0  0
    1.0346   -0.4123    1.2540 H   0  0  0  0  0  0  0  0  0  0  0  0
    0.9731   -2.4346    0.4130 H   0  0  0  0  0  0  0  0  0  0  0  0
   -0.3482   -0.1039   -2.5160 H   0  0  0  0  0  0  0  0  0  0  0  0
  1  3  2  0
  1  4  1  0
  2  5  2  0
  2  6  1  0
  3  7  1  0
  4  8  2  0
  5  9  1  0
  6 10  2  0
  7 14  2  0
  8 14  1  0
  9 15  2  0
 10 15  1  0
 11 12  1  0
 11 18  1  0
 12 20  1  0
 13 16  1  0
 13 20  1  0
 14 17  1  0
 15 17  1  0
 16 17  1  0
 16 18  1  0
 17 19  1  0
  1 21  1  0
  2 22  1  0
  3 23  1  0
  4 24  1  0
  5 25  1  0
  6 26  1  0
  7 27  1  0
  8 28  1  0
  9 29  1  0
 10 30  1  0
 11 31  1  0
 11 32  1  0
 12 33  1  0
 12 34  1  0
 13 35  1  0
 13 36  1  0
 16 37  1  0
 18 38  1  0
 19 39  1  0
M  END
