
     RDKit          3D

 41 42  0  0  0  0  0  0  0  0999 V2000
   -0.9837   -2.7541   -4.3249 C   0  0  0  0  0  0  0  0  0  0  0  0
   -2.7937   -0.5907    2.4826 C   0  0  0  0  0  0  0  0  0  0  0  0
    2.9977    2.0826    4.0506 C   0  0  0  0  0  0  0  0  0  0  0  0
    3.5025    2.9225    3.0592 C   0  0  0  0  0  0  0  0  0  0  0  0
    2.2586    0.9552    3.6981 C   0  0  0  0  0  0  0  0  0  0  0  0
    3.2711    2.6349    1.7123 C   0  0  0  0  0  0  0  0  0  0  0  0
    2.0266    0.6662    2.3528 C   0  0  0  0  0  0  0  0  0  0  0  0
   -0.9188    0.8289   -2.1017 C   0  0  0  0  0  0  0  0  0  0  0  0
    0.5892    0.9201   -1.8209 C   0  0  0  0  0  0  0  0  0  0  0  0
   -2.0571   -0.4320   -0.2405 C   0  0  0  0  0  0  0  0  0  0  0  0
   -2.1622   -2.7686   -1.7572 C   0  0  0  0  0  0  0  0  0  0  0  0
    2.2807    1.1785   -0.1098 C   0  0  0  0  0  0  0  0  0  0  0  0
    2.5307    1.5026    1.3445 C   0  0  0  0  0  0  0  0  0  0  0  0
   -1.5440   -0.4395   -1.5529 C   0  0  0  0  0  0  0  0  0  0  0  0
   -2.6753   -2.7441   -0.4549 C   0  0  0  0  0  0  0  0  0  0  0  0
   -1.5836   -1.6243   -2.3091 C   0  0  0  0  0  0  0  0  0  0  0  0
   -2.6141   -1.5816    0.3239 C   0  0  0  0  0  0  0  0  0  0  0  0
   -3.3682   -4.2056    0.1645 Cl  0  0  0  0  0  0  0  0  0  0  0  0
    0.8509    1.2184   -0.4088 N   0  0  0  0  0  0  0  0  0  0  0  0
   -1.0342   -1.5540   -3.5628 O   0  0  0  0  0  0  0  0  0  0  0  0
   -3.1238   -1.6506    1.5941 O   0  0  0  0  0  0  0  0  0  0  0  0
   -0.4829   -2.5282   -5.2715 H   0  0  0  0  0  0  0  0  0  0  0  0
   -0.3954   -3.5225   -3.8124 H   0  0  0  0  0  0  0  0  0  0  0  0
   -1.9908   -3.1142   -4.5591 H   0  0  0  0  0  0  0  0  0  0  0  0
   -1.7104   -0.4392    2.5418 H   0  0  0  0  0  0  0  0  0  0  0  0
   -3.3081    0.3322    2.1966 H   0  0  0  0  0  0  0  0  0  0  0  0
   -3.1448   -0.8706    3.4804 H   0  0  0  0  0  0  0  0  0  0  0  0
    3.1789    2.3076    5.0982 H   0  0  0  0  0  0  0  0  0  0  0  0
    4.0784    3.8018    3.3353 H   0  0  0  0  0  0  0  0  0  0  0  0
    1.8618    0.3005    4.4692 H   0  0  0  0  0  0  0  0  0  0  0  0
    3.6736    3.3008    0.9528 H   0  0  0  0  0  0  0  0  0  0  0  0
    1.4421   -0.2125    2.0844 H   0  0  0  0  0  0  0  0  0  0  0  0
   -1.4392    1.7052   -1.6926 H   0  0  0  0  0  0  0  0  0  0  0  0
   -1.0880    0.8827   -3.1844 H   0  0  0  0  0  0  0  0  0  0  0  0
    1.0778   -0.0180   -2.1115 H   0  0  0  0  0  0  0  0  0  0  0  0
    1.0116    1.7213   -2.4395 H   0  0  0  0  0  0  0  0  0  0  0  0
   -1.9949    0.4940    0.3236 H   0  0  0  0  0  0  0  0  0  0  0  0
   -2.2239   -3.6973   -2.3138 H   0  0  0  0  0  0  0  0  0  0  0  0
    2.6917    0.1818   -0.3125 H   0  0  0  0  0  0  0  0  0  0  0  0
    2.8199    1.8897   -0.7478 H   0  0  0  0  0  0  0  0  0  0  0  0
    0.4931    2.1439   -0.1766 H   0  0  0  0  0  0  0  0  0  0  0  0
  1 20  1  0
  2 21  1  0
  3  4  2  0
  3  5  1  0
  4  6  1  0
  5  7  2  0
  6 13  2  0
  7 13  1  0
  8  9  1  0
  8 14  1  0
  9 19  1  0
 10 14  2  0
 10 17  1  0
 11 15  1  0
 11 16  2  0
 12 13  1  0
 12 19  1  0
 14 16  1  0
 15 17  2  0
 15 18  1  0
 16 20  1  0
 17 21  1  0
  1 22  1  0
  1 23  1  0
  1 24  1  0
  2 25  1  0
  2 26  1  0
  2 27  1  0
  3 28  1  0
  4 29  1  0
  5 30  1  0
  6 31  1  0
  7 32  1  0
  8 33  1  0
  8 34  1  0
  9 35  1  0
  9 36  1  0
 10 37  1  0
 11 38  1  0
 12 39  1  0
 12 40  1  0
 19 41  1  0
M  END
