
     RDKit          3D

 42 43  0  0  0  0  0  0  0  0999 V2000
   -3.0915    2.5760    1.6924 C   0  0  0  0  0  0  0  0  0  0  0  0
    0.1505   -3.6993   -0.4039 C   0  0  0  0  0  0  0  0  0  0  0  0
    6.4585    1.6334    0.7886 C   0  0  0  0  0  0  0  0  0  0  0  0
    5.4210    2.4723    0.3860 C   0  0  0  0  0  0  0  0  0  0  0  0
    6.2237    0.2712    0.9655 C   0  0  0  0  0  0  0  0  0  0  0  0
    4.1475    1.9489    0.1560 C   0  0  0  0  0  0  0  0  0  0  0  0
    4.9513   -0.2545    0.7358 C   0  0  0  0  0  0  0  0  0  0  0  0
   -4.0954   -0.7865   -0.6359 C   0  0  0  0  0  0  0  0  0  0  0  0
   -4.2878    0.0123   -1.9299 C   0  0  0  0  0  0  0  0  0  0  0  0
   -1.7326   -1.5950   -0.2937 C   0  0  0  0  0  0  0  0  0  0  0  0
   -1.0635    0.6740    1.1737 C   0  0  0  0  0  0  0  0  0  0  0  0
    2.5231    0.0106    0.0814 C   0  0  0  0  0  0  0  0  0  0  0  0
    3.9011    0.5779    0.3212 C   0  0  0  0  0  0  0  0  0  0  0  0
   -2.7049   -0.6041   -0.0601 C   0  0  0  0  0  0  0  0  0  0  0  0
   -2.3646    0.5375    0.6840 C   0  0  0  0  0  0  0  0  0  0  0  0
   -0.4329   -1.4671    0.2077 C   0  0  0  0  0  0  0  0  0  0  0  0
   -0.0917   -0.3104    0.9299 C   0  0  0  0  0  0  0  0  0  0  0  0
   -5.5937   -0.2578   -2.5327 N   0  0  0  0  0  0  0  0  0  0  0  0
   -3.3661    1.4542    0.8629 O   0  0  0  0  0  0  0  0  0  0  0  0
    0.5511   -2.4043    0.0252 O   0  0  0  0  0  0  0  0  0  0  0  0
    1.5416   -0.0148    1.6183 S   0  0  0  0  0  0  0  0  0  0  0  0
   -2.8183    2.2629    2.7054 H   0  0  0  0  0  0  0  0  0  0  0  0
   -2.3172    3.2114    1.2502 H   0  0  0  0  0  0  0  0  0  0  0  0
   -4.0076    3.1702    1.7639 H   0  0  0  0  0  0  0  0  0  0  0  0
    1.0234   -4.3562   -0.3407 H   0  0  0  0  0  0  0  0  0  0  0  0
   -0.6267   -4.1150    0.2462 H   0  0  0  0  0  0  0  0  0  0  0  0
   -0.1748   -3.6799   -1.4489 H   0  0  0  0  0  0  0  0  0  0  0  0
    7.4487    2.0423    0.9707 H   0  0  0  0  0  0  0  0  0  0  0  0
    5.6022    3.5359    0.2557 H   0  0  0  0  0  0  0  0  0  0  0  0
    7.0302   -0.3821    1.2879 H   0  0  0  0  0  0  0  0  0  0  0  0
    3.3457    2.6176   -0.1488 H   0  0  0  0  0  0  0  0  0  0  0  0
    4.7791   -1.3179    0.8881 H   0  0  0  0  0  0  0  0  0  0  0  0
   -4.8458   -0.4983    0.1115 H   0  0  0  0  0  0  0  0  0  0  0  0
   -4.2698   -1.8537   -0.8275 H   0  0  0  0  0  0  0  0  0  0  0  0
   -4.2074    1.0866   -1.7315 H   0  0  0  0  0  0  0  0  0  0  0  0
   -3.5043   -0.2415   -2.6536 H   0  0  0  0  0  0  0  0  0  0  0  0
   -2.0190   -2.4632   -0.8795 H   0  0  0  0  0  0  0  0  0  0  0  0
   -0.7745    1.5483    1.7487 H   0  0  0  0  0  0  0  0  0  0  0  0
    2.0074    0.6131   -0.6755 H   0  0  0  0  0  0  0  0  0  0  0  0
    2.6174   -1.0011   -0.3258 H   0  0  0  0  0  0  0  0  0  0  0  0
   -5.6505   -1.2379   -2.8046 H   0  0  0  0  0  0  0  0  0  0  0  0
   -5.6826    0.2837   -3.3916 H   0  0  0  0  0  0  0  0  0  0  0  0
  1 19  1  0
  2 20  1  0
  3  4  2  0
  3  5  1  0
  4  6  1  0
  5  7  2  0
  6 13  2  0
  7 13  1  0
  8  9  1  0
  8 14  1  0
  9 18  1  0
 10 14  2  0
 10 16  1  0
 11 15  2  0
 11 17  1  0
 12 13  1  0
 12 21  1  0
 14 15  1  0
 15 19  1  0
 16 17  2  0
 16 20  1  0
 17 21  1  0
  1 22  1  0
  1 23  1  0
  1 24  1  0
  2 25  1  0
  2 26  1  0
  2 27  1  0
  3 28  1  0
  4 29  1  0
  5 30  1  0
  6 31  1  0
  7 32  1  0
  8 33  1  0
  8 34  1  0
  9 35  1  0
  9 36  1  0
 10 37  1  0
 11 38  1  0
 12 39  1  0
 12 40  1  0
 18 41  1  0
 18 42  1  0
M  END
