
     RDKit          3D

 44 46  0  0  0  0  0  0  0  0999 V2000
   -3.0872    2.1545    1.9384 C   0  0  0  0  0  0  0  0  0  0  0  0
   -2.7164    2.1367   -0.5358 C   0  0  0  0  0  0  0  0  0  0  0  0
   -0.6651   -2.2278   -1.1616 C   0  0  0  0  0  0  0  0  0  0  0  0
   -1.3471   -2.1525    1.2410 C   0  0  0  0  0  0  0  0  0  0  0  0
    0.7659   -2.5594   -0.7313 C   0  0  0  0  0  0  0  0  0  0  0  0
    0.0973   -2.4343    1.6605 C   0  0  0  0  0  0  0  0  0  0  0  0
    1.7167    1.7118   -0.8487 C   0  0  0  0  0  0  0  0  0  0  0  0
    2.6582    2.3979   -1.6245 C   0  0  0  0  0  0  0  0  0  0  0  0
    3.1933   -0.1744   -0.7155 C   0  0  0  0  0  0  0  0  0  0  0  0
   -2.6042    1.3168    0.7505 C   0  0  0  0  0  0  0  0  0  0  0  0
   -1.3691   -1.3788   -0.0861 C   0  0  0  0  0  0  0  0  0  0  0  0
    1.0851   -1.8747    0.6100 C   0  0  0  0  0  0  0  0  0  0  0  0
    1.9469    0.3979   -0.3967 C   0  0  0  0  0  0  0  0  0  0  0  0
    3.8702    1.7952   -1.9544 C   0  0  0  0  0  0  0  0  0  0  0  0
    4.1417    0.5073   -1.4930 C   0  0  0  0  0  0  0  0  0  0  0  0
   -0.6060   -0.0296    0.0579 C   0  0  0  0  0  0  0  0  0  0  0  0
    0.9124   -0.3246    0.4800 C   0  0  0  0  0  0  0  0  0  0  0  0
    4.9843    2.6955   -2.9188 Cl  0  0  0  0  0  0  0  0  0  0  0  0
    5.6277   -0.3053   -1.8416 Cl  0  0  0  0  0  0  0  0  0  0  0  0
   -1.2286    0.8931    1.0435 N   0  0  0  0  0  0  0  0  0  0  0  0
    1.1532    0.2334    1.7904 O   0  0  0  0  0  0  0  0  0  0  0  0
   -2.4847    3.0611    2.0659 H   0  0  0  0  0  0  0  0  0  0  0  0
   -3.0371    1.5796    2.8701 H   0  0  0  0  0  0  0  0  0  0  0  0
   -4.1293    2.4614    1.7965 H   0  0  0  0  0  0  0  0  0  0  0  0
   -2.0305    2.9911   -0.5281 H   0  0  0  0  0  0  0  0  0  0  0  0
   -3.7330    2.5268   -0.6570 H   0  0  0  0  0  0  0  0  0  0  0  0
   -2.4971    1.5305   -1.4201 H   0  0  0  0  0  0  0  0  0  0  0  0
   -1.2227   -3.1561   -1.3353 H   0  0  0  0  0  0  0  0  0  0  0  0
   -0.6517   -1.6902   -2.1175 H   0  0  0  0  0  0  0  0  0  0  0  0
   -1.8649   -1.5952    2.0298 H   0  0  0  0  0  0  0  0  0  0  0  0
   -1.8889   -3.0999    1.1301 H   0  0  0  0  0  0  0  0  0  0  0  0
    1.4674   -2.2586   -1.5162 H   0  0  0  0  0  0  0  0  0  0  0  0
    0.8753   -3.6463   -0.6294 H   0  0  0  0  0  0  0  0  0  0  0  0
    0.2420   -3.5168    1.7675 H   0  0  0  0  0  0  0  0  0  0  0  0
    0.2925   -2.0064    2.6504 H   0  0  0  0  0  0  0  0  0  0  0  0
    0.8007    2.2374   -0.5899 H   0  0  0  0  0  0  0  0  0  0  0  0
    2.4393    3.4096   -1.9580 H   0  0  0  0  0  0  0  0  0  0  0  0
    3.4573   -1.1639   -0.3524 H   0  0  0  0  0  0  0  0  0  0  0  0
   -3.2669    0.4480    0.6854 H   0  0  0  0  0  0  0  0  0  0  0  0
   -2.4034   -1.2139   -0.4051 H   0  0  0  0  0  0  0  0  0  0  0  0
    2.0925   -2.1376    0.9503 H   0  0  0  0  0  0  0  0  0  0  0  0
   -0.6128    0.4391   -0.9327 H   0  0  0  0  0  0  0  0  0  0  0  0
   -0.6393    1.7278    1.1169 H   0  0  0  0  0  0  0  0  0  0  0  0
    0.2662    0.2939    2.2009 H   0  0  0  0  0  0  0  0  0  0  0  0
  1 10  1  0
  2 10  1  0
  3  5  1  0
  3 11  1  0
  4  6  1  0
  4 11  1  0
  5 12  1  0
  6 12  1  0
  7  8  2  0
  7 13  1  0
  8 14  1  0
  9 13  2  0
  9 15  1  0
 10 20  1  0
 11 16  1  0
 12 17  1  0
 13 17  1  0
 14 15  2  0
 14 18  1  0
 15 19  1  0
 16 17  1  0
 16 20  1  0
 17 21  1  0
  1 22  1  0
  1 23  1  0
  1 24  1  0
  2 25  1  0
  2 26  1  0
  2 27  1  0
  3 28  1  0
  3 29  1  0
  4 30  1  0
  4 31  1  0
  5 32  1  0
  5 33  1  0
  6 34  1  0
  6 35  1  0
  7 36  1  0
  8 37  1  0
  9 38  1  0
 10 39  1  0
 11 40  1  0
 12 41  1  0
 16 42  1  0
 20 43  1  0
 21 44  1  0
M  END
