
     RDKit          3D

 45 47  0  0  0  0  0  0  0  0999 V2000
   -0.8537    2.8142    1.3265 C   0  0  0  0  0  0  0  0  0  0  0  0
    2.7998   -2.2899    1.9819 C   0  0  0  0  0  0  0  0  0  0  0  0
    4.2384   -0.3862   -0.1120 C   0  0  0  0  0  0  0  0  0  0  0  0
   -2.2359   -0.9744    0.7886 C   0  0  0  0  0  0  0  0  0  0  0  0
   -2.7497   -1.8864   -1.3800 C   0  0  0  0  0  0  0  0  0  0  0  0
   -3.3787   -1.5862    1.3141 C   0  0  0  0  0  0  0  0  0  0  0  0
   -3.8924   -2.4986   -0.8582 C   0  0  0  0  0  0  0  0  0  0  0  0
    0.5851    2.7311   -1.3594 C   0  0  0  0  0  0  0  0  0  0  0  0
    1.5227    2.1327   -0.3132 C   0  0  0  0  0  0  0  0  0  0  0  0
   -1.1189    0.8919   -1.8685 C   0  0  0  0  0  0  0  0  0  0  0  0
   -1.8976   -1.1156   -0.5644 C   0  0  0  0  0  0  0  0  0  0  0  0
   -4.2014   -2.3453    0.4889 C   0  0  0  0  0  0  0  0  0  0  0  0
   -0.7957    2.1489   -1.0266 C   0  0  0  0  0  0  0  0  0  0  0  0
   -0.6761   -0.4518   -1.2104 C   0  0  0  0  0  0  0  0  0  0  0  0
    0.6567    1.0899    0.4141 C   0  0  0  0  0  0  0  0  0  0  0  0
    0.6430   -0.2463   -0.3973 C   0  0  0  0  0  0  0  0  0  0  0  0
    1.1144   -1.4635    0.4201 C   0  0  0  0  0  0  0  0  0  0  0  0
   -5.6086   -3.0954    1.1358 Cl  0  0  0  0  0  0  0  0  0  0  0  0
   -0.6791    1.7242    0.3719 N   0  0  0  0  0  0  0  0  0  0  0  0
    2.4458   -1.4925    0.8212 N   0  0  0  0  0  0  0  0  0  0  0  0
    0.3818   -2.4239    0.6641 O   0  0  0  0  0  0  0  0  0  0  0  0
    3.1588   -0.2720    0.8165 O   0  0  0  0  0  0  0  0  0  0  0  0
   -0.1710    3.6560    1.1744 H   0  0  0  0  0  0  0  0  0  0  0  0
   -0.7180    2.4451    2.3489 H   0  0  0  0  0  0  0  0  0  0  0  0
   -1.8774    3.1997    1.2660 H   0  0  0  0  0  0  0  0  0  0  0  0
    2.3720   -3.2926    1.8955 H   0  0  0  0  0  0  0  0  0  0  0  0
    2.3983   -1.8076    2.8786 H   0  0  0  0  0  0  0  0  0  0  0  0
    3.8875   -2.3646    2.0609 H   0  0  0  0  0  0  0  0  0  0  0  0
    4.9458   -1.1550    0.2131 H   0  0  0  0  0  0  0  0  0  0  0  0
    4.7599    0.5740   -0.1472 H   0  0  0  0  0  0  0  0  0  0  0  0
    3.8631   -0.6176   -1.1138 H   0  0  0  0  0  0  0  0  0  0  0  0
   -1.6105   -0.3977    1.4629 H   0  0  0  0  0  0  0  0  0  0  0  0
   -2.5247   -2.0158   -2.4365 H   0  0  0  0  0  0  0  0  0  0  0  0
   -3.6126   -1.4661    2.3678 H   0  0  0  0  0  0  0  0  0  0  0  0
   -4.5309   -3.0908   -1.5069 H   0  0  0  0  0  0  0  0  0  0  0  0
    0.5813    3.8231   -1.2619 H   0  0  0  0  0  0  0  0  0  0  0  0
    0.9149    2.4919   -2.3754 H   0  0  0  0  0  0  0  0  0  0  0  0
    1.8544    2.9133    0.3822 H   0  0  0  0  0  0  0  0  0  0  0  0
    2.4226    1.7232   -0.7793 H   0  0  0  0  0  0  0  0  0  0  0  0
   -0.6376    0.9763   -2.8513 H   0  0  0  0  0  0  0  0  0  0  0  0
   -2.1983    0.8767   -2.0700 H   0  0  0  0  0  0  0  0  0  0  0  0
   -1.5824    2.8941   -1.1928 H   0  0  0  0  0  0  0  0  0  0  0  0
   -0.3979   -1.1327   -2.0299 H   0  0  0  0  0  0  0  0  0  0  0  0
    0.9923    0.9260    1.4436 H   0  0  0  0  0  0  0  0  0  0  0  0
    1.4106   -0.1635   -1.1829 H   0  0  0  0  0  0  0  0  0  0  0  0
  1 19  1  0
  2 20  1  0
  3 22  1  0
  4  6  2  0
  4 11  1  0
  5  7  1  0
  5 11  2  0
  6 12  1  0
  7 12  2  0
  8  9  1  0
  8 13  1  0
  9 15  1  0
 10 13  1  0
 10 14  1  0
 11 14  1  0
 12 18  1  0
 13 19  1  0
 14 16  1  0
 15 16  1  0
 15 19  1  0
 16 17  1  0
 17 20  1  0
 17 21  2  0
 20 22  1  0
  1 23  1  0
  1 24  1  0
  1 25  1  0
  2 26  1  0
  2 27  1  0
  2 28  1  0
  3 29  1  0
  3 30  1  0
  3 31  1  0
  4 32  1  0
  5 33  1  0
  6 34  1  0
  7 35  1  0
  8 36  1  0
  8 37  1  0
  9 38  1  0
  9 39  1  0
 10 40  1  0
 10 41  1  0
 13 42  1  0
 14 43  1  0
 15 44  1  0
 16 45  1  0
M  END
