
     RDKit          3D

 46 47  0  0  0  0  0  0  0  0999 V2000
   -3.7378    3.1155   -1.8005 C   0  0  0  0  0  0  0  0  0  0  0  0
    5.1405   -2.9870    0.7732 C   0  0  0  0  0  0  0  0  0  0  0  0
    4.4640    2.2916    1.9659 C   0  0  0  0  0  0  0  0  0  0  0  0
   -3.0051    2.0843   -0.9528 C   0  0  0  0  0  0  0  0  0  0  0  0
   -3.1020   -1.4623    1.5621 C   0  0  0  0  0  0  0  0  0  0  0  0
   -3.2759   -2.3562    0.3418 C   0  0  0  0  0  0  0  0  0  0  0  0
   -2.0081    1.2852   -1.7955 C   0  0  0  0  0  0  0  0  0  0  0  0
    1.5016   -1.1145   -0.2782 C   0  0  0  0  0  0  0  0  0  0  0  0
    2.7031   -1.7559    0.0437 C   0  0  0  0  0  0  0  0  0  0  0  0
   -2.1007   -0.3890    1.1397 C   0  0  0  0  0  0  0  0  0  0  0  0
   -2.8256   -1.4836   -0.8145 C   0  0  0  0  0  0  0  0  0  0  0  0
    2.3589    0.9438    0.6472 C   0  0  0  0  0  0  0  0  0  0  0  0
    1.3191    0.2388    0.0194 C   0  0  0  0  0  0  0  0  0  0  0  0
   -1.0912    0.2759   -1.0573 C   0  0  0  0  0  0  0  0  0  0  0  0
    3.7375   -1.0540    0.6700 C   0  0  0  0  0  0  0  0  0  0  0  0
    3.5634    0.3101    0.9756 C   0  0  0  0  0  0  0  0  0  0  0  0
    0.0544    0.9850   -0.2996 C   0  0  0  0  0  0  0  0  0  0  0  0
   -1.7096   -0.7622   -0.2176 N   0  0  0  0  0  0  0  0  0  0  0  0
   -0.0278    2.1628    0.0546 O   0  0  0  0  0  0  0  0  0  0  0  0
    4.9453   -1.6027    1.0223 O   0  0  0  0  0  0  0  0  0  0  0  0
    4.6237    0.9309    1.5897 O   0  0  0  0  0  0  0  0  0  0  0  0
   -4.4592    3.6650   -1.1880 H   0  0  0  0  0  0  0  0  0  0  0  0
   -4.2826    2.6352   -2.6186 H   0  0  0  0  0  0  0  0  0  0  0  0
   -3.0372    3.8384   -2.2301 H   0  0  0  0  0  0  0  0  0  0  0  0
    5.1127   -3.2021   -0.2997 H   0  0  0  0  0  0  0  0  0  0  0  0
    6.1358   -3.2552    1.1400 H   0  0  0  0  0  0  0  0  0  0  0  0
    4.4115   -3.5945    1.3184 H   0  0  0  0  0  0  0  0  0  0  0  0
    3.6412    2.4120    2.6787 H   0  0  0  0  0  0  0  0  0  0  0  0
    5.3844    2.6109    2.4649 H   0  0  0  0  0  0  0  0  0  0  0  0
    4.3246    2.9294    1.0871 H   0  0  0  0  0  0  0  0  0  0  0  0
   -2.4970    2.6031   -0.1344 H   0  0  0  0  0  0  0  0  0  0  0  0
   -3.7513    1.4176   -0.5089 H   0  0  0  0  0  0  0  0  0  0  0  0
   -4.0586   -0.9993    1.8334 H   0  0  0  0  0  0  0  0  0  0  0  0
   -2.7486   -2.0396    2.4233 H   0  0  0  0  0  0  0  0  0  0  0  0
   -2.6257   -3.2354    0.4307 H   0  0  0  0  0  0  0  0  0  0  0  0
   -4.3070   -2.7045    0.2280 H   0  0  0  0  0  0  0  0  0  0  0  0
   -2.5676    0.7456   -2.5716 H   0  0  0  0  0  0  0  0  0  0  0  0
   -1.3655    1.9940   -2.3348 H   0  0  0  0  0  0  0  0  0  0  0  0
    0.7215   -1.7054   -0.7493 H   0  0  0  0  0  0  0  0  0  0  0  0
    2.7966   -2.8081   -0.2059 H   0  0  0  0  0  0  0  0  0  0  0  0
   -1.2359   -0.3924    1.8113 H   0  0  0  0  0  0  0  0  0  0  0  0
   -2.5721    0.5941    1.2079 H   0  0  0  0  0  0  0  0  0  0  0  0
   -2.5183   -2.0856   -1.6751 H   0  0  0  0  0  0  0  0  0  0  0  0
   -3.6443   -0.8227   -1.1187 H   0  0  0  0  0  0  0  0  0  0  0  0
    2.2056    1.9951    0.8720 H   0  0  0  0  0  0  0  0  0  0  0  0
   -0.5908   -0.2522   -1.8822 H   0  0  0  0  0  0  0  0  0  0  0  0
  1  4  1  0
  2 20  1  0
  3 21  1  0
  4  7  1  0
  5  6  1  0
  5 10  1  0
  6 11  1  0
  7 14  1  0
  8  9  2  0
  8 13  1  0
  9 15  1  0
 10 18  1  0
 11 18  1  0
 12 13  2  0
 12 16  1  0
 13 17  1  0
 14 17  1  0
 14 18  1  0
 15 16  2  0
 15 20  1  0
 16 21  1  0
 17 19  2  0
  1 22  1  0
  1 23  1  0
  1 24  1  0
  2 25  1  0
  2 26  1  0
  2 27  1  0
  3 28  1  0
  3 29  1  0
  3 30  1  0
  4 31  1  0
  4 32  1  0
  5 33  1  0
  5 34  1  0
  6 35  1  0
  6 36  1  0
  7 37  1  0
  7 38  1  0
  8 39  1  0
  9 40  1  0
 10 41  1  0
 10 42  1  0
 11 43  1  0
 11 44  1  0
 12 45  1  0
 14 46  1  0
M  END
