
     RDKit          3D

 42 43  0  0  0  0  0  0  0  0999 V2000
   -1.9500    3.0880   -1.8608 C   0  0  0  0  0  0  0  0  0  0  0  0
   -5.0637   -2.6376    1.6484 C   0  0  0  0  0  0  0  0  0  0  0  0
    5.7248   -0.5835    1.4371 C   0  0  0  0  0  0  0  0  0  0  0  0
    6.4927   -0.7605    0.2907 C   0  0  0  0  0  0  0  0  0  0  0  0
    4.3809   -0.2169    1.3275 C   0  0  0  0  0  0  0  0  0  0  0  0
    5.9203   -0.5525   -0.9616 C   0  0  0  0  0  0  0  0  0  0  0  0
   -0.7074   -0.5626   -0.1782 C   0  0  0  0  0  0  0  0  0  0  0  0
    0.0850    0.1140    0.9514 C   0  0  0  0  0  0  0  0  0  0  0  0
   -3.1151   -0.9852    0.4405 C   0  0  0  0  0  0  0  0  0  0  0  0
   -3.9223    1.4300   -0.6982 C   0  0  0  0  0  0  0  0  0  0  0  0
    2.3107    0.3557   -0.0135 C   0  0  0  0  0  0  0  0  0  0  0  0
   -2.1639   -0.1442   -0.1701 C   0  0  0  0  0  0  0  0  0  0  0  0
    3.7731   -0.0305    0.0709 C   0  0  0  0  0  0  0  0  0  0  0  0
   -4.8592    0.5806   -0.0931 C   0  0  0  0  0  0  0  0  0  0  0  0
    4.5817   -0.1717   -1.0666 C   0  0  0  0  0  0  0  0  0  0  0  0
   -2.5730    1.0754   -0.7375 C   0  0  0  0  0  0  0  0  0  0  0  0
   -4.4678   -0.6353    0.4845 C   0  0  0  0  0  0  0  0  0  0  0  0
   -6.8672    1.2127   -0.0888 I   0  0  0  0  0  0  0  0  0  0  0  0
    1.4925   -0.2939    1.0156 N   0  0  0  0  0  0  0  0  0  0  0  0
    4.1325    0.0524   -2.3382 O   0  0  0  0  0  0  0  0  0  0  0  0
   -1.5794    1.8355   -1.2975 O   0  0  0  0  0  0  0  0  0  0  0  0
   -5.4459   -1.4026    1.0582 O   0  0  0  0  0  0  0  0  0  0  0  0
   -1.0421    3.5610   -2.2474 H   0  0  0  0  0  0  0  0  0  0  0  0
   -2.6388    2.9540   -2.7012 H   0  0  0  0  0  0  0  0  0  0  0  0
   -2.3735    3.7530   -1.1010 H   0  0  0  0  0  0  0  0  0  0  0  0
   -4.6389   -3.3171    0.9023 H   0  0  0  0  0  0  0  0  0  0  0  0
   -4.3714   -2.4794    2.4818 H   0  0  0  0  0  0  0  0  0  0  0  0
   -5.9657   -3.1086    2.0510 H   0  0  0  0  0  0  0  0  0  0  0  0
    6.1673   -0.7322    2.4186 H   0  0  0  0  0  0  0  0  0  0  0  0
    7.5367   -1.0500    0.3708 H   0  0  0  0  0  0  0  0  0  0  0  0
    3.7989   -0.0832    2.2383 H   0  0  0  0  0  0  0  0  0  0  0  0
    6.5202   -0.6733   -1.8596 H   0  0  0  0  0  0  0  0  0  0  0  0
   -0.6396   -1.6536   -0.0752 H   0  0  0  0  0  0  0  0  0  0  0  0
   -0.2768   -0.3361   -1.1605 H   0  0  0  0  0  0  0  0  0  0  0  0
   -0.3731   -0.1598    1.9101 H   0  0  0  0  0  0  0  0  0  0  0  0
    0.0102    1.2068    0.8919 H   0  0  0  0  0  0  0  0  0  0  0  0
   -2.7657   -1.9153    0.8786 H   0  0  0  0  0  0  0  0  0  0  0  0
   -4.2677    2.3624   -1.1313 H   0  0  0  0  0  0  0  0  0  0  0  0
    2.2489    1.4463    0.0823 H   0  0  0  0  0  0  0  0  0  0  0  0
    1.9211    0.0760   -0.9970 H   0  0  0  0  0  0  0  0  0  0  0  0
    1.5711   -1.3049    0.9072 H   0  0  0  0  0  0  0  0  0  0  0  0
    3.3998    0.6867   -2.3077 H   0  0  0  0  0  0  0  0  0  0  0  0
  1 21  1  0
  2 22  1  0
  3  4  2  0
  3  5  1  0
  4  6  1  0
  5 13  2  0
  6 15  2  0
  7  8  1  0
  7 12  1  0
  8 19  1  0
  9 12  2  0
  9 17  1  0
 10 14  1  0
 10 16  2  0
 11 13  1  0
 11 19  1  0
 12 16  1  0
 13 15  1  0
 14 17  2  0
 14 18  1  0
 15 20  1  0
 16 21  1  0
 17 22  1  0
  1 23  1  0
  1 24  1  0
  1 25  1  0
  2 26  1  0
  2 27  1  0
  2 28  1  0
  3 29  1  0
  4 30  1  0
  5 31  1  0
  6 32  1  0
  7 33  1  0
  7 34  1  0
  8 35  1  0
  8 36  1  0
  9 37  1  0
 10 38  1  0
 11 39  1  0
 11 40  1  0
 19 41  1  0
 20 42  1  0
M  END
