
     RDKit          3D

 46 47  0  0  0  0  0  0  0  0999 V2000
   -3.0980    3.5971    1.1751 C   0  0  0  0  0  0  0  0  0  0  0  0
    0.1547    0.5676   -2.1659 C   0  0  0  0  0  0  0  0  0  0  0  0
   -3.0968    2.1793    0.6207 C   0  0  0  0  0  0  0  0  0  0  0  0
   -4.1867   -2.7020    0.2652 C   0  0  0  0  0  0  0  0  0  0  0  0
    4.9114   -1.1228   -0.1144 C   0  0  0  0  0  0  0  0  0  0  0  0
   -2.9380   -2.7421    0.8812 C   0  0  0  0  0  0  0  0  0  0  0  0
   -4.5353   -1.6099   -0.5261 C   0  0  0  0  0  0  0  0  0  0  0  0
    4.7886    0.3558    0.2577 C   0  0  0  0  0  0  0  0  0  0  0  0
    3.8127   -1.9429    0.5434 C   0  0  0  0  0  0  0  0  0  0  0  0
   -2.0399   -1.6859    0.7105 C   0  0  0  0  0  0  0  0  0  0  0  0
   -3.6382   -0.5521   -0.6945 C   0  0  0  0  0  0  0  0  0  0  0  0
    3.3905    0.7426    0.7541 C   0  0  0  0  0  0  0  0  0  0  0  0
    2.4210   -1.4114    0.1724 C   0  0  0  0  0  0  0  0  0  0  0  0
    1.0191    0.6006    0.2484 C   0  0  0  0  0  0  0  0  0  0  0  0
   -0.0958    0.1133   -0.7214 C   0  0  0  0  0  0  0  0  0  0  0  0
   -2.3875   -0.5730   -0.0667 C   0  0  0  0  0  0  0  0  0  0  0  0
   -1.7889    1.8463   -0.0942 C   0  0  0  0  0  0  0  0  0  0  0  0
    2.3626    0.0470   -0.0232 N   0  0  0  0  0  0  0  0  0  0  0  0
   -1.4583    0.4942   -0.2474 N   0  0  0  0  0  0  0  0  0  0  0  0
   -1.0417    2.7548   -0.4635 O   0  0  0  0  0  0  0  0  0  0  0  0
   -4.0326    3.7956    1.7088 H   0  0  0  0  0  0  0  0  0  0  0  0
   -3.0020    4.3357    0.3724 H   0  0  0  0  0  0  0  0  0  0  0  0
   -2.2661    3.7463    1.8713 H   0  0  0  0  0  0  0  0  0  0  0  0
    1.0753    0.1234   -2.5589 H   0  0  0  0  0  0  0  0  0  0  0  0
   -0.6698    0.2564   -2.8166 H   0  0  0  0  0  0  0  0  0  0  0  0
    0.2533    1.6536   -2.2496 H   0  0  0  0  0  0  0  0  0  0  0  0
   -3.2540    1.4844    1.4518 H   0  0  0  0  0  0  0  0  0  0  0  0
   -3.9238    2.0935   -0.0888 H   0  0  0  0  0  0  0  0  0  0  0  0
   -4.8848   -3.5252    0.3951 H   0  0  0  0  0  0  0  0  0  0  0  0
    5.8991   -1.5016    0.1707 H   0  0  0  0  0  0  0  0  0  0  0  0
    4.8372   -1.2297   -1.2040 H   0  0  0  0  0  0  0  0  0  0  0  0
   -2.6631   -3.5946    1.4971 H   0  0  0  0  0  0  0  0  0  0  0  0
   -5.5016   -1.5859   -1.0238 H   0  0  0  0  0  0  0  0  0  0  0  0
    5.5171    0.5997    1.0405 H   0  0  0  0  0  0  0  0  0  0  0  0
    5.0584    0.9620   -0.6161 H   0  0  0  0  0  0  0  0  0  0  0  0
    3.8977   -2.9948    0.2484 H   0  0  0  0  0  0  0  0  0  0  0  0
    3.9410   -1.9073    1.6328 H   0  0  0  0  0  0  0  0  0  0  0  0
   -1.0794   -1.7303    1.2171 H   0  0  0  0  0  0  0  0  0  0  0  0
   -3.9137    0.2624   -1.3590 H   0  0  0  0  0  0  0  0  0  0  0  0
    3.2911    1.8303    0.6514 H   0  0  0  0  0  0  0  0  0  0  0  0
    3.2887    0.5157    1.8236 H   0  0  0  0  0  0  0  0  0  0  0  0
    2.1044   -1.8911   -0.7614 H   0  0  0  0  0  0  0  0  0  0  0  0
    1.7239   -1.7402    0.9539 H   0  0  0  0  0  0  0  0  0  0  0  0
    1.0781    1.6932    0.1813 H   0  0  0  0  0  0  0  0  0  0  0  0
    0.7274    0.3737    1.2830 H   0  0  0  0  0  0  0  0  0  0  0  0
   -0.0572   -0.9815   -0.7547 H   0  0  0  0  0  0  0  0  0  0  0  0
  1  3  1  0
  2 15  1  0
  3 17  1  0
  4  6  2  0
  4  7  1  0
  5  8  1  0
  5  9  1  0
  6 10  1  0
  7 11  2  0
  8 12  1  0
  9 13  1  0
 10 16  2  0
 11 16  1  0
 12 18  1  0
 13 18  1  0
 14 15  1  0
 14 18  1  0
 15 19  1  0
 16 19  1  0
 17 19  1  0
 17 20  2  0
  1 21  1  0
  1 22  1  0
  1 23  1  0
  2 24  1  0
  2 25  1  0
  2 26  1  0
  3 27  1  0
  3 28  1  0
  4 29  1  0
  5 30  1  0
  5 31  1  0
  6 32  1  0
  7 33  1  0
  8 34  1  0
  8 35  1  0
  9 36  1  0
  9 37  1  0
 10 38  1  0
 11 39  1  0
 12 40  1  0
 12 41  1  0
 13 42  1  0
 13 43  1  0
 14 44  1  0
 14 45  1  0
 15 46  1  0
M  END
