
     RDKit          3D

 37 40  0  0  0  0  0  0  0  0999 V2000
    3.7102    2.4847   -1.1040 C   0  0  0  0  0  0  0  0  0  0  0  0
    4.5171    2.0088   -0.0694 C   0  0  0  0  0  0  0  0  0  0  0  0
    2.4431    1.9350   -1.3145 C   0  0  0  0  0  0  0  0  0  0  0  0
    4.0546    0.9885    0.7617 C   0  0  0  0  0  0  0  0  0  0  0  0
    0.3625   -3.9209   -0.1456 C   0  0  0  0  0  0  0  0  0  0  0  0
   -0.6411   -3.1058    0.3835 C   0  0  0  0  0  0  0  0  0  0  0  0
    1.4113   -1.9882   -1.1485 C   0  0  0  0  0  0  0  0  0  0  0  0
   -1.6632    0.7090   -1.2620 C   0  0  0  0  0  0  0  0  0  0  0  0
   -2.5221   -1.2003    1.6842 C   0  0  0  0  0  0  0  0  0  0  0  0
    1.3740   -3.3615   -0.9195 C   0  0  0  0  0  0  0  0  0  0  0  0
    1.9832    0.8960   -0.4949 C   0  0  0  0  0  0  0  0  0  0  0  0
    0.4250   -1.1515   -0.5978 C   0  0  0  0  0  0  0  0  0  0  0  0
    2.7908    0.4418    0.5503 C   0  0  0  0  0  0  0  0  0  0  0  0
   -0.6332   -1.7215    0.1362 C   0  0  0  0  0  0  0  0  0  0  0  0
   -2.2153    0.2100    0.0165 C   0  0  0  0  0  0  0  0  0  0  0  0
    0.6211    0.3293   -0.7368 C   0  0  0  0  0  0  0  0  0  0  0  0
   -3.2642    0.6302    0.8270 C   0  0  0  0  0  0  0  0  0  0  0  0
   -4.1162    1.8040    0.6858 C   0  0  0  0  0  0  0  0  0  0  0  0
    2.5962   -4.3712   -1.5867 Cl  0  0  0  0  0  0  0  0  0  0  0  0
    2.3669   -0.5183    1.3853 F   0  0  0  0  0  0  0  0  0  0  0  0
   -5.0647    2.0730    1.5092 N   0  0  0  0  0  0  0  0  0  0  0  0
   -0.3042    1.1736   -1.0483 N   0  0  0  0  0  0  0  0  0  0  0  0
   -3.4427   -0.2834    1.8537 N   0  0  0  0  0  0  0  0  0  0  0  0
   -1.7159   -0.9349    0.6063 N   0  0  0  0  0  0  0  0  0  0  0  0
   -3.8825    2.6195   -0.3565 O   0  0  0  0  0  0  0  0  0  0  0  0
    4.0638    3.2905   -1.7435 H   0  0  0  0  0  0  0  0  0  0  0  0
    5.5010    2.4417    0.0961 H   0  0  0  0  0  0  0  0  0  0  0  0
    1.8148    2.3196   -2.1151 H   0  0  0  0  0  0  0  0  0  0  0  0
    4.6671    0.6216    1.5798 H   0  0  0  0  0  0  0  0  0  0  0  0
    0.3380   -4.9930    0.0360 H   0  0  0  0  0  0  0  0  0  0  0  0
   -1.4414   -3.5861    0.9423 H   0  0  0  0  0  0  0  0  0  0  0  0
    2.2219   -1.5724   -1.7425 H   0  0  0  0  0  0  0  0  0  0  0  0
   -2.2463    1.5391   -1.6649 H   0  0  0  0  0  0  0  0  0  0  0  0
   -1.7006   -0.0658   -2.0387 H   0  0  0  0  0  0  0  0  0  0  0  0
   -2.3790   -2.0501    2.3373 H   0  0  0  0  0  0  0  0  0  0  0  0
   -5.5590    2.9247    1.2620 H   0  0  0  0  0  0  0  0  0  0  0  0
   -4.4708    3.3845   -0.3373 H   0  0  0  0  0  0  0  0  0  0  0  0
  1  2  2  0
  1  3  1  0
  2  4  1  0
  3 11  2  0
  4 13  2  0
  5  6  2  0
  5 10  1  0
  6 14  1  0
  7 10  2  0
  7 12  1  0
  8 15  1  0
  8 22  1  0
  9 23  2  0
  9 24  1  0
 10 19  1  0
 11 13  1  0
 11 16  1  0
 12 14  2  0
 12 16  1  0
 13 20  1  0
 14 24  1  0
 15 17  2  0
 15 24  1  0
 16 22  2  0
 17 18  1  0
 17 23  1  0
 18 21  2  3
 18 25  1  0
  1 26  1  0
  2 27  1  0
  3 28  1  0
  4 29  1  0
  5 30  1  0
  6 31  1  0
  7 32  1  0
  8 33  1  0
  8 34  1  0
  9 35  1  0
 21 36  1  0
 25 37  1  0
M  END
