
     RDKit          3D

 36 39  0  0  0  0  0  0  0  0999 V2000
   -3.6884   -0.5156    1.6616 C   0  0  0  0  0  0  0  0  0  0  0  0
    3.4225   -0.4746    2.0325 C   0  0  0  0  0  0  0  0  0  0  0  0
    4.6207   -0.2931    1.3414 C   0  0  0  0  0  0  0  0  0  0  0  0
    2.2130   -0.4981    1.3378 C   0  0  0  0  0  0  0  0  0  0  0  0
    4.6137   -0.1352   -0.0470 C   0  0  0  0  0  0  0  0  0  0  0  0
   -1.6397    3.0042    0.0405 C   0  0  0  0  0  0  0  0  0  0  0  0
   -2.2044    1.7268    0.0378 C   0  0  0  0  0  0  0  0  0  0  0  0
    0.5062    2.0580   -0.5343 C   0  0  0  0  0  0  0  0  0  0  0  0
   -2.5747   -2.7157   -0.9281 C   0  0  0  0  0  0  0  0  0  0  0  0
   -0.6071   -1.5561   -2.1547 C   0  0  0  0  0  0  0  0  0  0  0  0
   -3.0905   -1.1795    0.4727 C   0  0  0  0  0  0  0  0  0  0  0  0
   -0.2897    3.1641   -0.2474 C   0  0  0  0  0  0  0  0  0  0  0  0
   -1.6900   -1.6914   -1.1628 C   0  0  0  0  0  0  0  0  0  0  0  0
    2.2068   -0.3351   -0.0540 C   0  0  0  0  0  0  0  0  0  0  0  0
   -0.0450    0.7641   -0.5321 C   0  0  0  0  0  0  0  0  0  0  0  0
    3.4069   -0.1582   -0.7514 C   0  0  0  0  0  0  0  0  0  0  0  0
   -1.4161    0.5980   -0.2439 C   0  0  0  0  0  0  0  0  0  0  0  0
    0.8949   -0.3835   -0.7502 C   0  0  0  0  0  0  0  0  0  0  0  0
    0.4017    4.7387   -0.2518 Cl  0  0  0  0  0  0  0  0  0  0  0  0
    3.4580    0.0973   -2.4580 Cl  0  0  0  0  0  0  0  0  0  0  0  0
   -3.4438   -2.3856    0.0683 N   0  0  0  0  0  0  0  0  0  0  0  0
    0.6593   -1.4354   -1.4569 N   0  0  0  0  0  0  0  0  0  0  0  0
   -2.0311   -0.6839   -0.2844 N   0  0  0  0  0  0  0  0  0  0  0  0
   -2.9450    0.0468    2.2336 H   0  0  0  0  0  0  0  0  0  0  0  0
   -4.1104   -1.2692    2.3354 H   0  0  0  0  0  0  0  0  0  0  0  0
   -4.5033    0.1504    1.3645 H   0  0  0  0  0  0  0  0  0  0  0  0
    3.4328   -0.6082    3.1120 H   0  0  0  0  0  0  0  0  0  0  0  0
    5.5637   -0.2792    1.8834 H   0  0  0  0  0  0  0  0  0  0  0  0
    1.2849   -0.6634    1.8794 H   0  0  0  0  0  0  0  0  0  0  0  0
    5.5544    0.0063   -0.5738 H   0  0  0  0  0  0  0  0  0  0  0  0
   -2.2645    3.8701    0.2479 H   0  0  0  0  0  0  0  0  0  0  0  0
   -3.2760    1.6515    0.2008 H   0  0  0  0  0  0  0  0  0  0  0  0
    1.5568    2.2166   -0.7653 H   0  0  0  0  0  0  0  0  0  0  0  0
   -2.6310   -3.6722   -1.4321 H   0  0  0  0  0  0  0  0  0  0  0  0
   -0.7781   -0.7108   -2.8325 H   0  0  0  0  0  0  0  0  0  0  0  0
   -0.5673   -2.4490   -2.7890 H   0  0  0  0  0  0  0  0  0  0  0  0
  1 11  1  0
  2  3  2  0
  2  4  1  0
  3  5  1  0
  4 14  2  0
  5 16  2  0
  6  7  2  0
  6 12  1  0
  7 17  1  0
  8 12  2  0
  8 15  1  0
  9 13  2  0
  9 21  1  0
 10 13  1  0
 10 22  1  0
 11 21  2  0
 11 23  1  0
 12 19  1  0
 13 23  1  0
 14 16  1  0
 14 18  1  0
 15 17  2  0
 15 18  1  0
 16 20  1  0
 17 23  1  0
 18 22  2  0
  1 24  1  0
  1 25  1  0
  1 26  1  0
  2 27  1  0
  3 28  1  0
  4 29  1  0
  5 30  1  0
  6 31  1  0
  7 32  1  0
  8 33  1  0
  9 34  1  0
 10 35  1  0
 10 36  1  0
M  END
