
     RDKit          3D

 37 40  0  0  0  0  0  0  0  0999 V2000
    4.3293    1.0336   -1.5601 C   0  0  0  0  0  0  0  0  0  0  0  0
    4.4348   -0.2467   -2.1055 C   0  0  0  0  0  0  0  0  0  0  0  0
    3.1734    1.4089   -0.8707 C   0  0  0  0  0  0  0  0  0  0  0  0
    3.3810   -1.1504   -1.9700 C   0  0  0  0  0  0  0  0  0  0  0  0
   -0.8666   -2.0653    2.5614 C   0  0  0  0  0  0  0  0  0  0  0  0
   -1.7016   -1.3154    1.7283 C   0  0  0  0  0  0  0  0  0  0  0  0
    1.0439   -0.8074    1.7895 C   0  0  0  0  0  0  0  0  0  0  0  0
   -2.9449    2.2742   -0.8121 C   0  0  0  0  0  0  0  0  0  0  0  0
   -0.7193    2.6012    0.4798 C   0  0  0  0  0  0  0  0  0  0  0  0
   -3.7487   -1.2148   -0.7455 C   0  0  0  0  0  0  0  0  0  0  0  0
    0.4987   -1.8047    2.5925 C   0  0  0  0  0  0  0  0  0  0  0  0
   -1.8656    1.8537   -0.0756 C   0  0  0  0  0  0  0  0  0  0  0  0
    2.1209    0.4974   -0.7148 C   0  0  0  0  0  0  0  0  0  0  0  0
    0.2186   -0.0634    0.9279 C   0  0  0  0  0  0  0  0  0  0  0  0
    2.2292   -0.7739   -1.2826 C   0  0  0  0  0  0  0  0  0  0  0  0
   -1.1703   -0.3084    0.9083 C   0  0  0  0  0  0  0  0  0  0  0  0
   -3.2227    0.1637   -0.5361 C   0  0  0  0  0  0  0  0  0  0  0  0
    0.8934    0.9246    0.0229 C   0  0  0  0  0  0  0  0  0  0  0  0
    1.5196   -2.7149    3.6354 Cl  0  0  0  0  0  0  0  0  0  0  0  0
    1.2240   -1.6573   -1.1983 F   0  0  0  0  0  0  0  0  0  0  0  0
   -3.7804    1.2326   -1.0814 N   0  0  0  0  0  0  0  0  0  0  0  0
    0.4967    2.1398   -0.1669 N   0  0  0  0  0  0  0  0  0  0  0  0
   -2.0427    0.4980    0.1269 N   0  0  0  0  0  0  0  0  0  0  0  0
   -2.7227   -2.0132   -1.3201 O   0  0  0  0  0  0  0  0  0  0  0  0
    5.1446    1.7441   -1.6769 H   0  0  0  0  0  0  0  0  0  0  0  0
    5.3335   -0.5355   -2.6456 H   0  0  0  0  0  0  0  0  0  0  0  0
    3.0943    2.4124   -0.4578 H   0  0  0  0  0  0  0  0  0  0  0  0
    3.4452   -2.1438   -2.4036 H   0  0  0  0  0  0  0  0  0  0  0  0
   -1.2937   -2.8381    3.1963 H   0  0  0  0  0  0  0  0  0  0  0  0
   -2.7677   -1.5062    1.7886 H   0  0  0  0  0  0  0  0  0  0  0  0
    2.1136   -0.6177    1.8333 H   0  0  0  0  0  0  0  0  0  0  0  0
   -3.1611    3.2766   -1.1594 H   0  0  0  0  0  0  0  0  0  0  0  0
   -0.6592    2.5115    1.5712 H   0  0  0  0  0  0  0  0  0  0  0  0
   -0.8357    3.6707    0.2702 H   0  0  0  0  0  0  0  0  0  0  0  0
   -4.5937   -1.1992   -1.4423 H   0  0  0  0  0  0  0  0  0  0  0  0
   -4.1037   -1.6749    0.1780 H   0  0  0  0  0  0  0  0  0  0  0  0
   -2.4945   -1.5916   -2.1686 H   0  0  0  0  0  0  0  0  0  0  0  0
  1  2  2  0
  1  3  1  0
  2  4  1  0
  3 13  2  0
  4 15  2  0
  5  6  2  0
  5 11  1  0
  6 16  1  0
  7 11  2  0
  7 14  1  0
  8 12  2  0
  8 21  1  0
  9 12  1  0
  9 22  1  0
 10 17  1  0
 10 24  1  0
 11 19  1  0
 12 23  1  0
 13 15  1  0
 13 18  1  0
 14 16  2  0
 14 18  1  0
 15 20  1  0
 16 23  1  0
 17 21  2  0
 17 23  1  0
 18 22  2  0
  1 25  1  0
  2 26  1  0
  3 27  1  0
  4 28  1  0
  5 29  1  0
  6 30  1  0
  7 31  1  0
  8 32  1  0
  9 33  1  0
  9 34  1  0
 10 35  1  0
 10 36  1  0
 24 37  1  0
M  END
