
     RDKit          3D

 35 37  0  0  0  0  0  0  0  0999 V2000
   -1.1187    3.4182   -3.6907 C   0  0  0  0  0  0  0  0  0  0  0  0
   -2.9861   -1.1339    2.2249 C   0  0  0  0  0  0  0  0  0  0  0  0
   -1.2528    2.5972   -2.8247 C   0  0  0  0  0  0  0  0  0  0  0  0
    4.4201   -0.0505    0.0543 C   0  0  0  0  0  0  0  0  0  0  0  0
    4.4144    1.2101    0.6527 C   0  0  0  0  0  0  0  0  0  0  0  0
    3.2188   -0.7329   -0.1542 C   0  0  0  0  0  0  0  0  0  0  0  0
    3.2081    1.7858    1.0510 C   0  0  0  0  0  0  0  0  0  0  0  0
   -2.6298    1.4857   -1.1364 C   0  0  0  0  0  0  0  0  0  0  0  0
   -2.7870    0.5170   -0.1386 C   0  0  0  0  0  0  0  0  0  0  0  0
   -0.3436    0.8004   -1.4344 C   0  0  0  0  0  0  0  0  0  0  0  0
   -0.4643   -2.9350   -0.0061 C   0  0  0  0  0  0  0  0  0  0  0  0
   -1.4115    1.6193   -1.7936 C   0  0  0  0  0  0  0  0  0  0  0  0
    2.0025   -0.1501    0.2262 C   0  0  0  0  0  0  0  0  0  0  0  0
   -0.4906   -0.1576   -0.4124 C   0  0  0  0  0  0  0  0  0  0  0  0
    2.0111    1.1033    0.8426 C   0  0  0  0  0  0  0  0  0  0  0  0
   -1.7335   -0.3435    0.2243 C   0  0  0  0  0  0  0  0  0  0  0  0
   -1.3893   -2.6302    1.1646 C   0  0  0  0  0  0  0  0  0  0  0  0
    0.7340   -0.9059   -0.0039 C   0  0  0  0  0  0  0  0  0  0  0  0
    0.8749    1.6757    1.2668 F   0  0  0  0  0  0  0  0  0  0  0  0
    0.7792   -2.1868    0.1538 N   0  0  0  0  0  0  0  0  0  0  0  0
   -1.9683   -1.3567    1.2071 N   0  0  0  0  0  0  0  0  0  0  0  0
   -1.6581   -3.5064    1.9922 O   0  0  0  0  0  0  0  0  0  0  0  0
   -0.9998    4.1467   -4.4588 H   0  0  0  0  0  0  0  0  0  0  0  0
   -2.7893   -1.7405    3.1145 H   0  0  0  0  0  0  0  0  0  0  0  0
   -2.9930   -0.0852    2.5386 H   0  0  0  0  0  0  0  0  0  0  0  0
   -3.9626   -1.4213    1.8227 H   0  0  0  0  0  0  0  0  0  0  0  0
    5.3609   -0.5079   -0.2439 H   0  0  0  0  0  0  0  0  0  0  0  0
    5.3507    1.7375    0.8192 H   0  0  0  0  0  0  0  0  0  0  0  0
    3.2332   -1.7205   -0.6109 H   0  0  0  0  0  0  0  0  0  0  0  0
    3.1924    2.7588    1.5325 H   0  0  0  0  0  0  0  0  0  0  0  0
   -3.4716    2.1218   -1.4023 H   0  0  0  0  0  0  0  0  0  0  0  0
   -3.7703    0.4261    0.3159 H   0  0  0  0  0  0  0  0  0  0  0  0
    0.6099    0.9174   -1.9455 H   0  0  0  0  0  0  0  0  0  0  0  0
   -0.9610   -2.7510   -0.9654 H   0  0  0  0  0  0  0  0  0  0  0  0
   -0.2293   -4.0051    0.0177 H   0  0  0  0  0  0  0  0  0  0  0  0
  1  3  3  0
  2 21  1  0
  3 12  1  0
  4  5  2  0
  4  6  1  0
  5  7  1  0
  6 13  2  0
  7 15  2  0
  8  9  2  0
  8 12  1  0
  9 16  1  0
 10 12  2  0
 10 14  1  0
 11 17  1  0
 11 20  1  0
 13 15  1  0
 13 18  1  0
 14 16  2  0
 14 18  1  0
 15 19  1  0
 16 21  1  0
 17 21  1  0
 17 22  2  0
 18 20  2  0
  1 23  1  0
  2 24  1  0
  2 25  1  0
  2 26  1  0
  4 27  1  0
  5 28  1  0
  6 29  1  0
  7 30  1  0
  8 31  1  0
  9 32  1  0
 10 33  1  0
 11 34  1  0
 11 35  1  0
M  END
