
     RDKit          3D

 39 41  0  0  0  0  0  0  0  0999 V2000
    3.7746    1.2359    1.7953 C   0  0  0  0  0  0  0  0  0  0  0  0
    4.2761    0.5312    0.5482 C   0  0  0  0  0  0  0  0  0  0  0  0
   -4.3608   -1.5381   -1.1546 C   0  0  0  0  0  0  0  0  0  0  0  0
   -4.3300   -2.9238   -1.0011 C   0  0  0  0  0  0  0  0  0  0  0  0
   -3.1812   -0.7997   -1.0580 C   0  0  0  0  0  0  0  0  0  0  0  0
   -3.1196   -3.5749   -0.7503 C   0  0  0  0  0  0  0  0  0  0  0  0
   -0.5097    2.0870    2.5992 C   0  0  0  0  0  0  0  0  0  0  0  0
   -0.1124    2.5157    1.3314 C   0  0  0  0  0  0  0  0  0  0  0  0
   -1.0324   -0.0862    1.6873 C   0  0  0  0  0  0  0  0  0  0  0  0
   -0.9633    0.7847    2.7712 C   0  0  0  0  0  0  0  0  0  0  0  0
   -1.9665   -1.4529   -0.8032 C   0  0  0  0  0  0  0  0  0  0  0  0
   -0.6421    0.3488    0.4088 C   0  0  0  0  0  0  0  0  0  0  0  0
   -1.9322   -2.8435   -0.6521 C   0  0  0  0  0  0  0  0  0  0  0  0
   -0.1579    1.6573    0.2233 C   0  0  0  0  0  0  0  0  0  0  0  0
   -0.7388   -0.6177   -0.7251 C   0  0  0  0  0  0  0  0  0  0  0  0
    1.3639    0.0490   -1.6929 C   0  0  0  0  0  0  0  0  0  0  0  0
    0.9529    1.4912   -1.8178 C   0  0  0  0  0  0  0  0  0  0  0  0
    2.3035   -0.2362   -0.5302 C   0  0  0  0  0  0  0  0  0  0  0  0
   -1.4452    0.2478    4.3322 Cl  0  0  0  0  0  0  0  0  0  0  0  0
   -0.4832   -3.7055   -0.2858 Cl  0  0  0  0  0  0  0  0  0  0  0  0
    0.2629    2.2113   -0.9975 N   0  0  0  0  0  0  0  0  0  0  0  0
    0.1319   -0.7740   -1.6651 N   0  0  0  0  0  0  0  0  0  0  0  0
    1.3320    2.0891   -2.9600 O   0  0  0  0  0  0  0  0  0  0  0  0
    2.1895   -1.1490    0.2793 O   0  0  0  0  0  0  0  0  0  0  0  0
    3.3248    0.6736   -0.5167 O   0  0  0  0  0  0  0  0  0  0  0  0
    2.8501    0.7784    2.1615 H   0  0  0  0  0  0  0  0  0  0  0  0
    3.5465    2.2847    1.5789 H   0  0  0  0  0  0  0  0  0  0  0  0
    4.5228    1.1937    2.5917 H   0  0  0  0  0  0  0  0  0  0  0  0
    4.5007   -0.5236    0.7434 H   0  0  0  0  0  0  0  0  0  0  0  0
    5.2059    1.0003    0.2101 H   0  0  0  0  0  0  0  0  0  0  0  0
   -5.3033   -1.0343   -1.3574 H   0  0  0  0  0  0  0  0  0  0  0  0
   -5.2492   -3.5002   -1.0792 H   0  0  0  0  0  0  0  0  0  0  0  0
   -3.2105    0.2784   -1.1980 H   0  0  0  0  0  0  0  0  0  0  0  0
   -3.1089   -4.6557   -0.6294 H   0  0  0  0  0  0  0  0  0  0  0  0
   -0.4577    2.7717    3.4416 H   0  0  0  0  0  0  0  0  0  0  0  0
    0.2444    3.5356    1.2007 H   0  0  0  0  0  0  0  0  0  0  0  0
   -1.3688   -1.1070    1.8497 H   0  0  0  0  0  0  0  0  0  0  0  0
    1.9107   -0.2382   -2.5995 H   0  0  0  0  0  0  0  0  0  0  0  0
    0.9806    2.9951   -2.9415 H   0  0  0  0  0  0  0  0  0  0  0  0
  1  2  1  0
  2 25  1  0
  3  4  2  0
  3  5  1  0
  4  6  1  0
  5 11  2  0
  6 13  2  0
  7  8  2  0
  7 10  1  0
  8 14  1  0
  9 10  2  0
  9 12  1  0
 10 19  1  0
 11 13  1  0
 11 15  1  0
 12 14  2  0
 12 15  1  0
 13 20  1  0
 14 21  1  0
 15 22  2  0
 16 17  1  0
 16 18  1  0
 16 22  1  0
 17 21  2  0
 17 23  1  0
 18 24  2  0
 18 25  1  0
  1 26  1  0
  1 27  1  0
  1 28  1  0
  2 29  1  0
  2 30  1  0
  3 31  1  0
  4 32  1  0
  5 33  1  0
  6 34  1  0
  7 35  1  0
  8 36  1  0
  9 37  1  0
 16 38  1  0
 23 39  1  0
M  END
