
     RDKit          3D

 38 41  0  0  0  0  0  0  0  0999 V2000
   -0.9311    3.0659   -0.5941 C   0  0  0  0  0  0  0  0  0  0  0  0
   -3.8327   -1.7239    0.7433 C   0  0  0  0  0  0  0  0  0  0  0  0
    3.4830   -1.6553    1.6935 C   0  0  0  0  0  0  0  0  0  0  0  0
    4.6308   -0.8838    1.4930 C   0  0  0  0  0  0  0  0  0  0  0  0
    2.2317   -1.1632    1.3162 C   0  0  0  0  0  0  0  0  0  0  0  0
    4.5314    0.3831    0.9150 C   0  0  0  0  0  0  0  0  0  0  0  0
   -1.1577   -1.6428   -2.7311 C   0  0  0  0  0  0  0  0  0  0  0  0
   -1.9205   -1.1357   -1.6770 C   0  0  0  0  0  0  0  0  0  0  0  0
    0.8080   -0.6054   -1.7980 C   0  0  0  0  0  0  0  0  0  0  0  0
   -0.8705    2.3362    0.7421 C   0  0  0  0  0  0  0  0  0  0  0  0
   -3.3144   -0.3450    0.9117 C   0  0  0  0  0  0  0  0  0  0  0  0
    0.2024   -1.3728   -2.7890 C   0  0  0  0  0  0  0  0  0  0  0  0
    2.1380    0.1060    0.7346 C   0  0  0  0  0  0  0  0  0  0  0  0
    0.0559   -0.1009   -0.7186 C   0  0  0  0  0  0  0  0  0  0  0  0
    3.2847    0.8752    0.5401 C   0  0  0  0  0  0  0  0  0  0  0  0
   -1.3252   -0.3643   -0.6609 C   0  0  0  0  0  0  0  0  0  0  0  0
    0.8094    0.6399    0.3380 C   0  0  0  0  0  0  0  0  0  0  0  0
   -1.9991    1.4006    0.9767 C   0  0  0  0  0  0  0  0  0  0  0  0
    1.1413   -1.9835   -4.0931 Cl  0  0  0  0  0  0  0  0  0  0  0  0
    3.2163    2.0763   -0.0518 F   0  0  0  0  0  0  0  0  0  0  0  0
    0.4175    1.6917    0.9600 N   0  0  0  0  0  0  0  0  0  0  0  0
   -3.8556    0.5473    1.7139 N   0  0  0  0  0  0  0  0  0  0  0  0
   -3.0343    1.6339    1.7576 N   0  0  0  0  0  0  0  0  0  0  0  0
   -2.1515    0.1769    0.3580 N   0  0  0  0  0  0  0  0  0  0  0  0
   -1.8631    3.6357   -0.6816 H   0  0  0  0  0  0  0  0  0  0  0  0
   -0.0955    3.7685   -0.6855 H   0  0  0  0  0  0  0  0  0  0  0  0
   -0.8837    2.3922   -1.4542 H   0  0  0  0  0  0  0  0  0  0  0  0
   -4.3946   -2.0220    1.6352 H   0  0  0  0  0  0  0  0  0  0  0  0
   -4.5169   -1.7805   -0.1080 H   0  0  0  0  0  0  0  0  0  0  0  0
   -3.0270   -2.4520    0.6131 H   0  0  0  0  0  0  0  0  0  0  0  0
    3.5648   -2.6378    2.1536 H   0  0  0  0  0  0  0  0  0  0  0  0
    5.6034   -1.2686    1.7918 H   0  0  0  0  0  0  0  0  0  0  0  0
    1.3420   -1.7608    1.4948 H   0  0  0  0  0  0  0  0  0  0  0  0
    5.4173    0.9897    0.7535 H   0  0  0  0  0  0  0  0  0  0  0  0
   -1.6373   -2.2263   -3.5140 H   0  0  0  0  0  0  0  0  0  0  0  0
   -2.9928   -1.3098   -1.7136 H   0  0  0  0  0  0  0  0  0  0  0  0
    1.8728   -0.3969   -1.8809 H   0  0  0  0  0  0  0  0  0  0  0  0
   -0.9473    3.1123    1.5155 H   0  0  0  0  0  0  0  0  0  0  0  0
  1 10  1  0
  2 11  1  0
  3  4  2  0
  3  5  1  0
  4  6  1  0
  5 13  2  0
  6 15  2  0
  7  8  2  0
  7 12  1  0
  8 16  1  0
  9 12  2  0
  9 14  1  0
 10 18  1  0
 10 21  1  0
 11 22  2  0
 11 24  1  0
 12 19  1  0
 13 15  1  0
 13 17  1  0
 14 16  2  0
 14 17  1  0
 15 20  1  0
 16 24  1  0
 17 21  2  0
 18 23  2  0
 18 24  1  0
 22 23  1  0
  1 25  1  0
  1 26  1  0
  1 27  1  0
  2 28  1  0
  2 29  1  0
  2 30  1  0
  3 31  1  0
  4 32  1  0
  5 33  1  0
  6 34  1  0
  7 35  1  0
  8 36  1  0
  9 37  1  0
 10 38  1  0
M  END
