
     RDKit          3D

 39 41  0  0  0  0  0  0  0  0999 V2000
    5.4909   -1.8012   -1.3226 C   0  0  0  0  0  0  0  0  0  0  0  0
    4.8838   -0.8665   -2.0660 C   0  0  0  0  0  0  0  0  0  0  0  0
   -3.7089   -1.9495   -1.1297 C   0  0  0  0  0  0  0  0  0  0  0  0
   -4.9541   -1.3223   -1.1752 C   0  0  0  0  0  0  0  0  0  0  0  0
   -2.5789   -1.2286   -0.7435 C   0  0  0  0  0  0  0  0  0  0  0  0
   -5.0733    0.0277   -0.8344 C   0  0  0  0  0  0  0  0  0  0  0  0
    0.2933   -0.2408    3.7519 C   0  0  0  0  0  0  0  0  0  0  0  0
    1.1096   -0.0491    2.6354 C   0  0  0  0  0  0  0  0  0  0  0  0
    4.1599    0.3247   -1.5147 C   0  0  0  0  0  0  0  0  0  0  0  0
   -1.6470    0.2799    2.4101 C   0  0  0  0  0  0  0  0  0  0  0  0
    0.2272    2.4145   -0.4724 C   0  0  0  0  0  0  0  0  0  0  0  0
   -1.0816   -0.0725    3.6330 C   0  0  0  0  0  0  0  0  0  0  0  0
   -2.7002    0.1244   -0.3992 C   0  0  0  0  0  0  0  0  0  0  0  0
   -0.8249    0.4681    1.2863 C   0  0  0  0  0  0  0  0  0  0  0  0
   -3.9464    0.7579   -0.4468 C   0  0  0  0  0  0  0  0  0  0  0  0
    0.5715    0.3178    1.3943 C   0  0  0  0  0  0  0  0  0  0  0  0
    1.3552    1.3780   -0.5591 C   0  0  0  0  0  0  0  0  0  0  0  0
   -1.4646    0.8473   -0.0099 C   0  0  0  0  0  0  0  0  0  0  0  0
   -2.0921   -0.3024    5.0059 Cl  0  0  0  0  0  0  0  0  0  0  0  0
   -4.1675    2.4063    0.0162 Cl  0  0  0  0  0  0  0  0  0  0  0  0
   -1.0161    1.7371   -0.8357 N   0  0  0  0  0  0  0  0  0  0  0  0
    1.4858    0.4366    0.3351 N   0  0  0  0  0  0  0  0  0  0  0  0
    2.2061    1.5037   -1.6527 N   0  0  0  0  0  0  0  0  0  0  0  0
    2.8213    0.2941   -2.0212 O   0  0  0  0  0  0  0  0  0  0  0  0
    5.4900   -1.7548   -0.2378 H   0  0  0  0  0  0  0  0  0  0  0  0
    5.9927   -2.6428   -1.7898 H   0  0  0  0  0  0  0  0  0  0  0  0
    4.9002   -0.9576   -3.1490 H   0  0  0  0  0  0  0  0  0  0  0  0
   -3.6170   -2.9983   -1.4031 H   0  0  0  0  0  0  0  0  0  0  0  0
   -5.8343   -1.8845   -1.4793 H   0  0  0  0  0  0  0  0  0  0  0  0
   -1.6064   -1.7165   -0.7285 H   0  0  0  0  0  0  0  0  0  0  0  0
   -6.0502    0.5040   -0.8713 H   0  0  0  0  0  0  0  0  0  0  0  0
    0.7383   -0.5222    4.7026 H   0  0  0  0  0  0  0  0  0  0  0  0
    2.1848   -0.1913    2.7246 H   0  0  0  0  0  0  0  0  0  0  0  0
    4.1478    0.3129   -0.4190 H   0  0  0  0  0  0  0  0  0  0  0  0
    4.6658    1.2355   -1.8571 H   0  0  0  0  0  0  0  0  0  0  0  0
   -2.7223    0.4202    2.3448 H   0  0  0  0  0  0  0  0  0  0  0  0
    0.4113    3.2222   -1.1886 H   0  0  0  0  0  0  0  0  0  0  0  0
    0.1851    2.8758    0.5207 H   0  0  0  0  0  0  0  0  0  0  0  0
    1.7652    1.9509   -2.4545 H   0  0  0  0  0  0  0  0  0  0  0  0
  1  2  2  3
  2  9  1  0
  3  4  2  0
  3  5  1  0
  4  6  1  0
  5 13  2  0
  6 15  2  0
  7  8  2  0
  7 12  1  0
  8 16  1  0
  9 24  1  0
 10 12  2  0
 10 14  1  0
 11 17  1  0
 11 21  1  0
 12 19  1  0
 13 15  1  0
 13 18  1  0
 14 16  2  0
 14 18  1  0
 15 20  1  0
 16 22  1  0
 17 22  2  0
 17 23  1  0
 18 21  2  0
 23 24  1  0
  1 25  1  0
  1 26  1  0
  2 27  1  0
  3 28  1  0
  4 29  1  0
  5 30  1  0
  6 31  1  0
  7 32  1  0
  8 33  1  0
  9 34  1  0
  9 35  1  0
 10 36  1  0
 11 37  1  0
 11 38  1  0
 23 39  1  0
M  END
