
     RDKit          3D

 45 46  0  0  0  0  0  0  0  0999 V2000
   -3.0845   -1.7983    2.8617 C   0  0  0  0  0  0  0  0  0  0  0  0
   -0.8028    2.5370   -2.6582 C   0  0  0  0  0  0  0  0  0  0  0  0
    3.8758   -1.3986    0.3017 C   0  0  0  0  0  0  0  0  0  0  0  0
    4.4695    0.9177   -0.0238 C   0  0  0  0  0  0  0  0  0  0  0  0
    5.1924   -1.6835    0.6737 C   0  0  0  0  0  0  0  0  0  0  0  0
    5.7858    0.6340    0.3484 C   0  0  0  0  0  0  0  0  0  0  0  0
   -4.6202   -0.3652   -0.7895 C   0  0  0  0  0  0  0  0  0  0  0  0
   -5.6215    0.5747   -0.1109 C   0  0  0  0  0  0  0  0  0  0  0  0
   -2.3847    0.7287   -1.1778 C   0  0  0  0  0  0  0  0  0  0  0  0
   -1.3709   -0.2679    1.2143 C   0  0  0  0  0  0  0  0  0  0  0  0
    2.0795    0.2153   -0.4529 C   0  0  0  0  0  0  0  0  0  0  0  0
    3.5033   -0.0966   -0.0576 C   0  0  0  0  0  0  0  0  0  0  0  0
   -3.1967   -0.0769   -0.3577 C   0  0  0  0  0  0  0  0  0  0  0  0
    6.1602   -0.6691    0.7057 C   0  0  0  0  0  0  0  0  0  0  0  0
   -2.6869   -0.5672    0.8550 C   0  0  0  0  0  0  0  0  0  0  0  0
   -1.0693    1.0381   -0.8155 C   0  0  0  0  0  0  0  0  0  0  0  0
   -0.5523    0.5151    0.3833 C   0  0  0  0  0  0  0  0  0  0  0  0
    7.5874   -0.9700    1.0895 C   0  0  0  0  0  0  0  0  0  0  0  0
    8.4036   -1.0827    0.0046 F   0  0  0  0  0  0  0  0  0  0  0  0
    8.1405   -0.0016    1.8735 F   0  0  0  0  0  0  0  0  0  0  0  0
    7.7292   -2.1344    1.7841 F   0  0  0  0  0  0  0  0  0  0  0  0
   -6.9847    0.3186   -0.5774 N   0  0  0  0  0  0  0  0  0  0  0  0
   -3.5501   -1.3217    1.6051 O   0  0  0  0  0  0  0  0  0  0  0  0
   -0.2365    1.8310   -1.5619 O   0  0  0  0  0  0  0  0  0  0  0  0
    1.1184    0.8192    0.9738 S   0  0  0  0  0  0  0  0  0  0  0  0
   -2.8323   -0.9683    3.5291 H   0  0  0  0  0  0  0  0  0  0  0  0
   -3.8986   -2.3639    3.3261 H   0  0  0  0  0  0  0  0  0  0  0  0
   -2.2370   -2.4795    2.7350 H   0  0  0  0  0  0  0  0  0  0  0  0
   -1.6325    3.1750   -2.3377 H   0  0  0  0  0  0  0  0  0  0  0  0
   -1.1146    1.8471   -3.4487 H   0  0  0  0  0  0  0  0  0  0  0  0
   -0.0255    3.1858   -3.0718 H   0  0  0  0  0  0  0  0  0  0  0  0
    3.1404   -2.2001    0.2958 H   0  0  0  0  0  0  0  0  0  0  0  0
    4.1978    1.9389   -0.2844 H   0  0  0  0  0  0  0  0  0  0  0  0
    5.4590   -2.7040    0.9441 H   0  0  0  0  0  0  0  0  0  0  0  0
    6.5197    1.4384    0.3643 H   0  0  0  0  0  0  0  0  0  0  0  0
   -4.8660   -1.4123   -0.5708 H   0  0  0  0  0  0  0  0  0  0  0  0
   -4.6975   -0.2694   -1.8808 H   0  0  0  0  0  0  0  0  0  0  0  0
   -5.5884    0.4548    0.9777 H   0  0  0  0  0  0  0  0  0  0  0  0
   -5.3668    1.6178   -0.3279 H   0  0  0  0  0  0  0  0  0  0  0  0
   -2.8124    1.1039   -2.1029 H   0  0  0  0  0  0  0  0  0  0  0  0
   -0.9517   -0.6341    2.1459 H   0  0  0  0  0  0  0  0  0  0  0  0
    1.6102   -0.6840   -0.8654 H   0  0  0  0  0  0  0  0  0  0  0  0
    2.0879    0.9677   -1.2465 H   0  0  0  0  0  0  0  0  0  0  0  0
   -7.2483   -0.6354   -0.3319 H   0  0  0  0  0  0  0  0  0  0  0  0
   -7.6277    0.9259   -0.0706 H   0  0  0  0  0  0  0  0  0  0  0  0
  1 23  1  0
  2 24  1  0
  3  5  2  0
  3 12  1  0
  4  6  1  0
  4 12  2  0
  5 14  1  0
  6 14  2  0
  7  8  1  0
  7 13  1  0
  8 22  1  0
  9 13  2  0
  9 16  1  0
 10 15  2  0
 10 17  1  0
 11 12  1  0
 11 25  1  0
 13 15  1  0
 14 18  1  0
 15 23  1  0
 16 17  2  0
 16 24  1  0
 17 25  1  0
 18 19  1  0
 18 20  1  0
 18 21  1  0
  1 26  1  0
  1 27  1  0
  1 28  1  0
  2 29  1  0
  2 30  1  0
  2 31  1  0
  3 32  1  0
  4 33  1  0
  5 34  1  0
  6 35  1  0
  7 36  1  0
  7 37  1  0
  8 38  1  0
  8 39  1  0
  9 40  1  0
 10 41  1  0
 11 42  1  0
 11 43  1  0
 22 44  1  0
 22 45  1  0
M  END
