
     RDKit          3D

 44 46  0  0  0  0  0  0  0  0999 V2000
   -2.7990   -3.5191    0.7803 C   0  0  0  0  0  0  0  0  0  0  0  0
    3.7712    0.4465    2.2783 C   0  0  0  0  0  0  0  0  0  0  0  0
   -2.1777    2.0002    0.7617 C   0  0  0  0  0  0  0  0  0  0  0  0
   -2.8017    1.3058   -1.4689 C   0  0  0  0  0  0  0  0  0  0  0  0
   -3.3852    2.6898    0.8832 C   0  0  0  0  0  0  0  0  0  0  0  0
   -4.0090    1.9955   -1.3452 C   0  0  0  0  0  0  0  0  0  0  0  0
    2.2256   -0.3341   -1.3604 C   0  0  0  0  0  0  0  0  0  0  0  0
    1.5511   -1.6201   -0.8870 C   0  0  0  0  0  0  0  0  0  0  0  0
    5.0274    0.8881    2.1205 C   0  0  0  0  0  0  0  0  0  0  0  0
    3.0599   -0.6595    1.5528 C   0  0  0  0  0  0  0  0  0  0  0  0
    0.6733    1.4509   -0.4197 C   0  0  0  0  0  0  0  0  0  0  0  0
   -1.8678    1.3034   -0.4188 C   0  0  0  0  0  0  0  0  0  0  0  0
   -4.2889    2.6818   -0.1712 C   0  0  0  0  0  0  0  0  0  0  0  0
    1.9855    0.6645   -0.2267 C   0  0  0  0  0  0  0  0  0  0  0  0
   -0.5633    0.5295   -0.5718 C   0  0  0  0  0  0  0  0  0  0  0  0
    0.9403   -1.2675    0.4776 C   0  0  0  0  0  0  0  0  0  0  0  0
   -0.4876   -0.6848    0.3875 C   0  0  0  0  0  0  0  0  0  0  0  0
   -1.4490   -1.7825   -0.0262 C   0  0  0  0  0  0  0  0  0  0  0  0
   -5.4488    3.3412   -0.0513 F   0  0  0  0  0  0  0  0  0  0  0  0
    6.4140    0.1871    0.8010 I   0  0  0  0  0  0  0  0  0  0  0  0
    1.7979   -0.1688    0.9801 N   0  0  0  0  0  0  0  0  0  0  0  0
   -1.7703   -2.0416   -1.1784 O   0  0  0  0  0  0  0  0  0  0  0  0
   -1.8787   -2.4669    1.0727 O   0  0  0  0  0  0  0  0  0  0  0  0
   -3.0779   -3.9962    1.7237 H   0  0  0  0  0  0  0  0  0  0  0  0
   -3.7042   -3.1176    0.3142 H   0  0  0  0  0  0  0  0  0  0  0  0
   -2.3303   -4.2713    0.1381 H   0  0  0  0  0  0  0  0  0  0  0  0
    3.1647    0.9409    3.0360 H   0  0  0  0  0  0  0  0  0  0  0  0
   -1.4821    2.0100    1.5985 H   0  0  0  0  0  0  0  0  0  0  0  0
   -2.5989    0.7610   -2.3896 H   0  0  0  0  0  0  0  0  0  0  0  0
   -3.6262    3.2297    1.7931 H   0  0  0  0  0  0  0  0  0  0  0  0
   -4.7315    1.9966   -2.1548 H   0  0  0  0  0  0  0  0  0  0  0  0
    3.2980   -0.5136   -1.4999 H   0  0  0  0  0  0  0  0  0  0  0  0
    1.8230    0.0088   -2.3190 H   0  0  0  0  0  0  0  0  0  0  0  0
    2.3083   -2.4056   -0.7735 H   0  0  0  0  0  0  0  0  0  0  0  0
    0.8203   -1.9819   -1.6153 H   0  0  0  0  0  0  0  0  0  0  0  0
    5.3692    1.7086    2.7458 H   0  0  0  0  0  0  0  0  0  0  0  0
    3.6914   -1.1524    0.8091 H   0  0  0  0  0  0  0  0  0  0  0  0
    2.8292   -1.4202    2.3102 H   0  0  0  0  0  0  0  0  0  0  0  0
    0.7534    2.0962   -1.3044 H   0  0  0  0  0  0  0  0  0  0  0  0
    0.5542    2.1278    0.4362 H   0  0  0  0  0  0  0  0  0  0  0  0
    2.8081    1.3822   -0.1391 H   0  0  0  0  0  0  0  0  0  0  0  0
   -0.5340    0.1520   -1.6038 H   0  0  0  0  0  0  0  0  0  0  0  0
    0.9366   -2.1370    1.1460 H   0  0  0  0  0  0  0  0  0  0  0  0
   -0.7905   -0.3570    1.3927 H   0  0  0  0  0  0  0  0  0  0  0  0
  1 23  1  0
  2  9  2  3
  2 10  1  0
  3  5  2  0
  3 12  1  0
  4  6  1  0
  4 12  2  0
  5 13  1  0
  6 13  2  0
  7  8  1  0
  7 14  1  0
  8 16  1  0
  9 20  1  0
 10 21  1  0
 11 14  1  0
 11 15  1  0
 12 15  1  0
 13 19  1  0
 14 21  1  0
 15 17  1  0
 16 17  1  0
 16 21  1  0
 17 18  1  0
 18 22  2  0
 18 23  1  0
  1 24  1  0
  1 25  1  0
  1 26  1  0
  2 27  1  0
  3 28  1  0
  4 29  1  0
  5 30  1  0
  6 31  1  0
  7 32  1  0
  7 33  1  0
  8 34  1  0
  8 35  1  0
  9 36  1  0
 10 37  1  0
 10 38  1  0
 11 39  1  0
 11 40  1  0
 14 41  1  0
 15 42  1  0
 16 43  1  0
 17 44  1  0
M  END
