
     RDKit          3D

 46 49  0  0  0  0  0  0  0  0999 V2000
   -2.5032   -2.6431   -1.6847 C   0  0  0  0  0  0  0  0  0  0  0  0
    4.0097    1.5036    1.0341 C   0  0  0  0  0  0  0  0  0  0  0  0
   -0.7900    2.6556    0.8569 C   0  0  0  0  0  0  0  0  0  0  0  0
   -1.3042    1.5235   -1.2088 C   0  0  0  0  0  0  0  0  0  0  0  0
   -1.0556    3.8869    0.2519 C   0  0  0  0  0  0  0  0  0  0  0  0
   -1.5679    2.7537   -1.8176 C   0  0  0  0  0  0  0  0  0  0  0  0
   -1.5584   -3.0355    1.2307 C   0  0  0  0  0  0  0  0  0  0  0  0
   -0.3708   -3.2713    0.3066 C   0  0  0  0  0  0  0  0  0  0  0  0
    2.8545    0.5451    1.0444 C   0  0  0  0  0  0  0  0  0  0  0  0
    4.4321    1.4040   -0.4091 C   0  0  0  0  0  0  0  0  0  0  0  0
   -1.9483   -0.5171    1.2990 C   0  0  0  0  0  0  0  0  0  0  0  0
   -0.9011    1.4561    0.1324 C   0  0  0  0  0  0  0  0  0  0  0  0
   -1.4414    3.9310   -1.0855 C   0  0  0  0  0  0  0  0  0  0  0  0
   -2.3053   -1.8457    0.6136 C   0  0  0  0  0  0  0  0  0  0  0  0
   -0.6110    0.1274    0.8305 C   0  0  0  0  0  0  0  0  0  0  0  0
   -0.3731   -2.0445   -0.6180 C   0  0  0  0  0  0  0  0  0  0  0  0
    0.3522   -0.8529    0.0855 C   0  0  0  0  0  0  0  0  0  0  0  0
    1.3671   -0.1707   -0.8520 C   0  0  0  0  0  0  0  0  0  0  0  0
   -1.8332    5.7603   -1.9894 I   0  0  0  0  0  0  0  0  0  0  0  0
   -1.8122   -1.7475   -0.7617 N   0  0  0  0  0  0  0  0  0  0  0  0
    2.2207    0.7476   -0.2443 N   0  0  0  0  0  0  0  0  0  0  0  0
    1.4077   -0.4270   -2.0568 O   0  0  0  0  0  0  0  0  0  0  0  0
    3.2158    1.2444   -1.1495 O   0  0  0  0  0  0  0  0  0  0  0  0
   -2.0667   -2.5643   -2.6863 H   0  0  0  0  0  0  0  0  0  0  0  0
   -2.4811   -3.6951   -1.3831 H   0  0  0  0  0  0  0  0  0  0  0  0
   -3.5532   -2.3437   -1.7762 H   0  0  0  0  0  0  0  0  0  0  0  0
    3.6541    2.5184    1.2490 H   0  0  0  0  0  0  0  0  0  0  0  0
    4.8030    1.2533    1.7423 H   0  0  0  0  0  0  0  0  0  0  0  0
   -0.4947    2.6427    1.9034 H   0  0  0  0  0  0  0  0  0  0  0  0
   -1.4088    0.6198   -1.8055 H   0  0  0  0  0  0  0  0  0  0  0  0
   -0.9572    4.7982    0.8351 H   0  0  0  0  0  0  0  0  0  0  0  0
   -1.8655    2.7700   -2.8627 H   0  0  0  0  0  0  0  0  0  0  0  0
   -2.1925   -3.9295    1.2453 H   0  0  0  0  0  0  0  0  0  0  0  0
   -1.2312   -2.8424    2.2575 H   0  0  0  0  0  0  0  0  0  0  0  0
    0.5628   -3.4062    0.8619 H   0  0  0  0  0  0  0  0  0  0  0  0
   -0.5277   -4.1901   -0.2719 H   0  0  0  0  0  0  0  0  0  0  0  0
    3.1939   -0.4950    1.1120 H   0  0  0  0  0  0  0  0  0  0  0  0
    2.1500    0.7397    1.8556 H   0  0  0  0  0  0  0  0  0  0  0  0
    4.9568    2.3000   -0.7515 H   0  0  0  0  0  0  0  0  0  0  0  0
    5.0632    0.5274   -0.5908 H   0  0  0  0  0  0  0  0  0  0  0  0
   -1.9063   -0.6713    2.3854 H   0  0  0  0  0  0  0  0  0  0  0  0
   -2.7792    0.1846    1.1410 H   0  0  0  0  0  0  0  0  0  0  0  0
   -3.3901   -1.9915    0.6793 H   0  0  0  0  0  0  0  0  0  0  0  0
   -0.0833    0.3987    1.7561 H   0  0  0  0  0  0  0  0  0  0  0  0
    0.0939   -2.3026   -1.5736 H   0  0  0  0  0  0  0  0  0  0  0  0
    0.9759   -1.3048    0.8698 H   0  0  0  0  0  0  0  0  0  0  0  0
  1 20  1  0
  2  9  1  0
  2 10  1  0
  3  5  2  0
  3 12  1  0
  4  6  1  0
  4 12  2  0
  5 13  1  0
  6 13  2  0
  7  8  1  0
  7 14  1  0
  8 16  1  0
  9 21  1  0
 10 23  1  0
 11 14  1  0
 11 15  1  0
 12 15  1  0
 13 19  1  0
 14 20  1  0
 15 17  1  0
 16 17  1  0
 16 20  1  0
 17 18  1  0
 18 21  1  0
 18 22  2  0
 21 23  1  0
  1 24  1  0
  1 25  1  0
  1 26  1  0
  2 27  1  0
  2 28  1  0
  3 29  1  0
  4 30  1  0
  5 31  1  0
  6 32  1  0
  7 33  1  0
  7 34  1  0
  8 35  1  0
  8 36  1  0
  9 37  1  0
  9 38  1  0
 10 39  1  0
 10 40  1  0
 11 41  1  0
 11 42  1  0
 14 43  1  0
 15 44  1  0
 16 45  1  0
 17 46  1  0
M  END
