
     RDKit          3D

 45 46  0  0  0  0  0  0  0  0999 V2000
   -5.1831    1.7350   -2.0756 C   0  0  0  0  0  0  0  0  0  0  0  0
    6.6410    1.9406   -1.4442 C   0  0  0  0  0  0  0  0  0  0  0  0
    4.9067   -1.3850    2.5159 C   0  0  0  0  0  0  0  0  0  0  0  0
   -5.5297   -1.8196    1.4839 C   0  0  0  0  0  0  0  0  0  0  0  0
   -6.4296   -1.3276    0.5446 C   0  0  0  0  0  0  0  0  0  0  0  0
   -4.2433   -1.2895    1.5517 C   0  0  0  0  0  0  0  0  0  0  0  0
   -6.0434   -0.3107   -0.3329 C   0  0  0  0  0  0  0  0  0  0  0  0
    2.6973    0.4478   -1.6269 C   0  0  0  0  0  0  0  0  0  0  0  0
    3.9959    0.9617   -1.5886 C   0  0  0  0  0  0  0  0  0  0  0  0
    0.8316   -0.9445   -0.6482 C   0  0  0  0  0  0  0  0  0  0  0  0
   -0.1386   -0.0320    0.1133 C   0  0  0  0  0  0  0  0  0  0  0  0
    3.1051   -0.7352    0.4381 C   0  0  0  0  0  0  0  0  0  0  0  0
   -2.4327    0.2801    0.7924 C   0  0  0  0  0  0  0  0  0  0  0  0
    2.2428   -0.4068   -0.6188 C   0  0  0  0  0  0  0  0  0  0  0  0
   -3.8439   -0.2552    0.6860 C   0  0  0  0  0  0  0  0  0  0  0  0
   -4.7528    0.2286   -0.2748 C   0  0  0  0  0  0  0  0  0  0  0  0
    4.8588    0.6313   -0.5386 C   0  0  0  0  0  0  0  0  0  0  0  0
    4.4090   -0.2257    0.4857 C   0  0  0  0  0  0  0  0  0  0  0  0
   -1.4949   -0.5838    0.0698 N   0  0  0  0  0  0  0  0  0  0  0  0
   -4.2841    1.2137   -1.1053 O   0  0  0  0  0  0  0  0  0  0  0  0
    6.1478    1.0903   -0.4197 O   0  0  0  0  0  0  0  0  0  0  0  0
    5.3129   -0.4990    1.4833 O   0  0  0  0  0  0  0  0  0  0  0  0
   -6.0497    2.2052   -1.5994 H   0  0  0  0  0  0  0  0  0  0  0  0
   -5.4907    0.9602   -2.7854 H   0  0  0  0  0  0  0  0  0  0  0  0
   -4.6534    2.5093   -2.6389 H   0  0  0  0  0  0  0  0  0  0  0  0
    6.6505    1.4294   -2.4125 H   0  0  0  0  0  0  0  0  0  0  0  0
    6.0691    2.8730   -1.4933 H   0  0  0  0  0  0  0  0  0  0  0  0
    7.6750    2.1988   -1.1956 H   0  0  0  0  0  0  0  0  0  0  0  0
    4.0663   -0.9716    3.0830 H   0  0  0  0  0  0  0  0  0  0  0  0
    4.6671   -2.3759    2.1162 H   0  0  0  0  0  0  0  0  0  0  0  0
    5.7474   -1.5009    3.2069 H   0  0  0  0  0  0  0  0  0  0  0  0
   -5.8252   -2.6179    2.1593 H   0  0  0  0  0  0  0  0  0  0  0  0
   -7.4335   -1.7404    0.4880 H   0  0  0  0  0  0  0  0  0  0  0  0
   -3.5385   -1.6884    2.2786 H   0  0  0  0  0  0  0  0  0  0  0  0
   -6.7761    0.0344   -1.0544 H   0  0  0  0  0  0  0  0  0  0  0  0
    2.0432    0.7212   -2.4522 H   0  0  0  0  0  0  0  0  0  0  0  0
    4.3026    1.6195   -2.3945 H   0  0  0  0  0  0  0  0  0  0  0  0
    0.5087   -1.0571   -1.6916 H   0  0  0  0  0  0  0  0  0  0  0  0
    0.8204   -1.9550   -0.2191 H   0  0  0  0  0  0  0  0  0  0  0  0
   -0.1243    0.9719   -0.3295 H   0  0  0  0  0  0  0  0  0  0  0  0
    0.1902    0.0613    1.1558 H   0  0  0  0  0  0  0  0  0  0  0  0
    2.7320   -1.3933    1.2167 H   0  0  0  0  0  0  0  0  0  0  0  0
   -2.3865    1.3100    0.4188 H   0  0  0  0  0  0  0  0  0  0  0  0
   -2.1565    0.3291    1.8537 H   0  0  0  0  0  0  0  0  0  0  0  0
   -1.8112   -0.6372   -0.8992 H   0  0  0  0  0  0  0  0  0  0  0  0
  1 20  1  0
  2 21  1  0
  3 22  1  0
  4  5  2  0
  4  6  1  0
  5  7  1  0
  6 15  2  0
  7 16  2  0
  8  9  2  0
  8 14  1  0
  9 17  1  0
 10 11  1  0
 10 14  1  0
 11 19  1  0
 12 14  2  0
 12 18  1  0
 13 15  1  0
 13 19  1  0
 15 16  1  0
 16 20  1  0
 17 18  2  0
 17 21  1  0
 18 22  1  0
  1 23  1  0
  1 24  1  0
  1 25  1  0
  2 26  1  0
  2 27  1  0
  2 28  1  0
  3 29  1  0
  3 30  1  0
  3 31  1  0
  4 32  1  0
  5 33  1  0
  6 34  1  0
  7 35  1  0
  8 36  1  0
  9 37  1  0
 10 38  1  0
 10 39  1  0
 11 40  1  0
 11 41  1  0
 12 42  1  0
 13 43  1  0
 13 44  1  0
 19 45  1  0
M  END
