
     RDKit          3D

 46 48  0  0  0  0  0  0  0  0999 V2000
    5.5153    1.7754    0.4441 C   0  0  0  0  0  0  0  0  0  0  0  0
   -1.4651   -2.5081    1.8934 C   0  0  0  0  0  0  0  0  0  0  0  0
   -3.6584    3.8456    0.7800 C   0  0  0  0  0  0  0  0  0  0  0  0
    3.6645    1.1111   -1.1262 C   0  0  0  0  0  0  0  0  0  0  0  0
    3.4292    0.5987    1.2152 C   0  0  0  0  0  0  0  0  0  0  0  0
    2.4249    0.5179   -1.3804 C   0  0  0  0  0  0  0  0  0  0  0  0
    2.1899    0.0051    0.9614 C   0  0  0  0  0  0  0  0  0  0  0  0
   -1.7702   -2.5311   -1.7644 C   0  0  0  0  0  0  0  0  0  0  0  0
   -2.5435   -1.2609   -1.3839 C   0  0  0  0  0  0  0  0  0  0  0  0
    0.4033   -2.2123   -0.4873 C   0  0  0  0  0  0  0  0  0  0  0  0
   -1.1372    1.3876   -0.2481 C   0  0  0  0  0  0  0  0  0  0  0  0
    4.1702    1.1690    0.1758 C   0  0  0  0  0  0  0  0  0  0  0  0
    1.6672   -0.0364   -0.3387 C   0  0  0  0  0  0  0  0  0  0  0  0
   -0.9784   -2.8906   -0.5026 C   0  0  0  0  0  0  0  0  0  0  0  0
    0.3191   -0.6756   -0.6400 C   0  0  0  0  0  0  0  0  0  0  0  0
   -0.8599   -0.0702    0.1801 C   0  0  0  0  0  0  0  0  0  0  0  0
   -2.1303   -0.9667    0.0684 C   0  0  0  0  0  0  0  0  0  0  0  0
   -2.1239    2.0823    0.6625 C   0  0  0  0  0  0  0  0  0  0  0  0
   -1.8785   -2.3432    0.5126 N   0  0  0  0  0  0  0  0  0  0  0  0
   -2.3375    1.7849    1.8290 O   0  0  0  0  0  0  0  0  0  0  0  0
   -2.7183    3.1111   -0.0051 O   0  0  0  0  0  0  0  0  0  0  0  0
    5.5551    2.2085    1.4491 H   0  0  0  0  0  0  0  0  0  0  0  0
    5.7286    2.5821   -0.2652 H   0  0  0  0  0  0  0  0  0  0  0  0
    6.2943    1.0119    0.3565 H   0  0  0  0  0  0  0  0  0  0  0  0
   -1.3870   -3.5739    2.1346 H   0  0  0  0  0  0  0  0  0  0  0  0
   -0.5060   -2.0432    2.1366 H   0  0  0  0  0  0  0  0  0  0  0  0
   -2.2215   -2.0887    2.5658 H   0  0  0  0  0  0  0  0  0  0  0  0
   -4.4748    3.1950    1.1088 H   0  0  0  0  0  0  0  0  0  0  0  0
   -4.0779    4.6373    0.1531 H   0  0  0  0  0  0  0  0  0  0  0  0
   -3.1616    4.3096    1.6378 H   0  0  0  0  0  0  0  0  0  0  0  0
    4.2331    1.5280   -1.9544 H   0  0  0  0  0  0  0  0  0  0  0  0
    3.8120    0.6113    2.2333 H   0  0  0  0  0  0  0  0  0  0  0  0
    2.0586    0.4917   -2.4043 H   0  0  0  0  0  0  0  0  0  0  0  0
    1.6411   -0.4303    1.7933 H   0  0  0  0  0  0  0  0  0  0  0  0
   -1.1309   -2.3751   -2.6394 H   0  0  0  0  0  0  0  0  0  0  0  0
   -2.4827   -3.3274   -2.0132 H   0  0  0  0  0  0  0  0  0  0  0  0
   -2.3390   -0.4436   -2.0799 H   0  0  0  0  0  0  0  0  0  0  0  0
   -3.6201   -1.4680   -1.4364 H   0  0  0  0  0  0  0  0  0  0  0  0
    0.9272   -2.4854    0.4369 H   0  0  0  0  0  0  0  0  0  0  0  0
    1.0162   -2.6187   -1.3031 H   0  0  0  0  0  0  0  0  0  0  0  0
   -0.2178    1.9824   -0.2143 H   0  0  0  0  0  0  0  0  0  0  0  0
   -1.5151    1.4197   -1.2750 H   0  0  0  0  0  0  0  0  0  0  0  0
   -0.8684   -3.9768   -0.4127 H   0  0  0  0  0  0  0  0  0  0  0  0
    0.1024   -0.4763   -1.6993 H   0  0  0  0  0  0  0  0  0  0  0  0
   -0.5771   -0.0342    1.2394 H   0  0  0  0  0  0  0  0  0  0  0  0
   -2.9711   -0.5298    0.6171 H   0  0  0  0  0  0  0  0  0  0  0  0
  1 12  1  0
  2 19  1  0
  3 21  1  0
  4  6  2  0
  4 12  1  0
  5  7  1  0
  5 12  2  0
  6 13  1  0
  7 13  2  0
  8  9  1  0
  8 14  1  0
  9 17  1  0
 10 14  1  0
 10 15  1  0
 11 16  1  0
 11 18  1  0
 13 15  1  0
 14 19  1  0
 15 16  1  0
 16 17  1  0
 17 19  1  0
 18 20  2  0
 18 21  1  0
  1 22  1  0
  1 23  1  0
  1 24  1  0
  2 25  1  0
  2 26  1  0
  2 27  1  0
  3 28  1  0
  3 29  1  0
  3 30  1  0
  4 31  1  0
  5 32  1  0
  6 33  1  0
  7 34  1  0
  8 35  1  0
  8 36  1  0
  9 37  1  0
  9 38  1  0
 10 39  1  0
 10 40  1  0
 11 41  1  0
 11 42  1  0
 14 43  1  0
 15 44  1  0
 16 45  1  0
 17 46  1  0
M  END
