
     RDKit          3D

 46 48  0  0  0  0  0  0  0  0999 V2000
    5.8203    0.8425   -0.5196 C   0  0  0  0  0  0  0  0  0  0  0  0
   -4.1548   -1.7990   -1.5722 C   0  0  0  0  0  0  0  0  0  0  0  0
   -0.5108    3.7542    0.4803 C   0  0  0  0  0  0  0  0  0  0  0  0
    5.3059   -0.3867    0.2138 C   0  0  0  0  0  0  0  0  0  0  0  0
    3.1208    0.1946    1.3358 C   0  0  0  0  0  0  0  0  0  0  0  0
    3.0585   -1.0218   -0.7429 C   0  0  0  0  0  0  0  0  0  0  0  0
    1.7243    0.1851    1.3825 C   0  0  0  0  0  0  0  0  0  0  0  0
    1.6621   -1.0310   -0.6958 C   0  0  0  0  0  0  0  0  0  0  0  0
   -3.4029   -0.9652    1.2422 C   0  0  0  0  0  0  0  0  0  0  0  0
   -3.4720    0.3408    0.4497 C   0  0  0  0  0  0  0  0  0  0  0  0
   -1.1094   -1.8543    0.5789 C   0  0  0  0  0  0  0  0  0  0  0  0
    3.8006   -0.4134    0.2751 C   0  0  0  0  0  0  0  0  0  0  0  0
    0.9759   -0.4274    0.3673 C   0  0  0  0  0  0  0  0  0  0  0  0
   -2.6297   -1.9253    0.3352 C   0  0  0  0  0  0  0  0  0  0  0  0
   -0.5455   -0.4172    0.4345 C   0  0  0  0  0  0  0  0  0  0  0  0
   -2.7160    0.0510   -0.8561 C   0  0  0  0  0  0  0  0  0  0  0  0
   -1.1978    0.3306   -0.7596 C   0  0  0  0  0  0  0  0  0  0  0  0
   -0.9790    1.8333   -0.7740 C   0  0  0  0  0  0  0  0  0  0  0  0
   -2.8550   -1.4121   -1.0273 N   0  0  0  0  0  0  0  0  0  0  0  0
   -1.0811    2.5125   -1.7902 O   0  0  0  0  0  0  0  0  0  0  0  0
   -0.7309    2.3434    0.4616 O   0  0  0  0  0  0  0  0  0  0  0  0
    6.9145    0.8356   -0.5486 H   0  0  0  0  0  0  0  0  0  0  0  0
    5.4537    0.8721   -1.5513 H   0  0  0  0  0  0  0  0  0  0  0  0
    5.4999    1.7647   -0.0229 H   0  0  0  0  0  0  0  0  0  0  0  0
   -4.2091   -2.8885   -1.6732 H   0  0  0  0  0  0  0  0  0  0  0  0
   -4.2777   -1.3842   -2.5788 H   0  0  0  0  0  0  0  0  0  0  0  0
   -5.0057   -1.4730   -0.9654 H   0  0  0  0  0  0  0  0  0  0  0  0
   -1.4124    4.2854    0.1600 H   0  0  0  0  0  0  0  0  0  0  0  0
   -0.2832    4.0472    1.5089 H   0  0  0  0  0  0  0  0  0  0  0  0
    0.3428    4.0193   -0.1515 H   0  0  0  0  0  0  0  0  0  0  0  0
    5.7170   -0.4108    1.2305 H   0  0  0  0  0  0  0  0  0  0  0  0
    5.6714   -1.2942   -0.2821 H   0  0  0  0  0  0  0  0  0  0  0  0
    3.6749    0.6830    2.1340 H   0  0  0  0  0  0  0  0  0  0  0  0
    3.5630   -1.4933   -1.5832 H   0  0  0  0  0  0  0  0  0  0  0  0
    1.2254    0.6686    2.2196 H   0  0  0  0  0  0  0  0  0  0  0  0
    1.1160   -1.5166   -1.5022 H   0  0  0  0  0  0  0  0  0  0  0  0
   -2.9251   -0.8264    2.2175 H   0  0  0  0  0  0  0  0  0  0  0  0
   -4.4186   -1.3364    1.4233 H   0  0  0  0  0  0  0  0  0  0  0  0
   -4.5210    0.5810    0.2377 H   0  0  0  0  0  0  0  0  0  0  0  0
   -3.0595    1.1794    1.0174 H   0  0  0  0  0  0  0  0  0  0  0  0
   -0.8769   -2.2349    1.5821 H   0  0  0  0  0  0  0  0  0  0  0  0
   -0.6159   -2.5372   -0.1253 H   0  0  0  0  0  0  0  0  0  0  0  0
   -2.9604   -2.9628    0.4592 H   0  0  0  0  0  0  0  0  0  0  0  0
   -0.8228    0.1049    1.3604 H   0  0  0  0  0  0  0  0  0  0  0  0
   -3.1432    0.6113   -1.6966 H   0  0  0  0  0  0  0  0  0  0  0  0
   -0.7308   -0.0287   -1.6884 H   0  0  0  0  0  0  0  0  0  0  0  0
  1  4  1  0
  2 19  1  0
  3 21  1  0
  4 12  1  0
  5  7  2  0
  5 12  1  0
  6  8  1  0
  6 12  2  0
  7 13  1  0
  8 13  2  0
  9 10  1  0
  9 14  1  0
 10 16  1  0
 11 14  1  0
 11 15  1  0
 13 15  1  0
 14 19  1  0
 15 17  1  0
 16 17  1  0
 16 19  1  0
 17 18  1  0
 18 20  2  0
 18 21  1  0
  1 22  1  0
  1 23  1  0
  1 24  1  0
  2 25  1  0
  2 26  1  0
  2 27  1  0
  3 28  1  0
  3 29  1  0
  3 30  1  0
  4 31  1  0
  4 32  1  0
  5 33  1  0
  6 34  1  0
  7 35  1  0
  8 36  1  0
  9 37  1  0
  9 38  1  0
 10 39  1  0
 10 40  1  0
 11 41  1  0
 11 42  1  0
 14 43  1  0
 15 44  1  0
 16 45  1  0
 17 46  1  0
M  END
