
     RDKit          3D

 46 47  0  0  0  0  0  0  0  0999 V2000
   -0.7477   -0.5558   -3.4374 C   0  0  0  0  0  0  0  0  0  0  0  0
    3.7330   -2.7775   -0.4927 C   0  0  0  0  0  0  0  0  0  0  0  0
   -3.1007   -0.1888    2.7699 C   0  0  0  0  0  0  0  0  0  0  0  0
   -1.5895   -0.5946   -2.3979 C   0  0  0  0  0  0  0  0  0  0  0  0
    2.8588   -2.0405    0.5066 C   0  0  0  0  0  0  0  0  0  0  0  0
    0.8901    3.7938   -1.9589 C   0  0  0  0  0  0  0  0  0  0  0  0
   -0.4271    3.3654   -1.8407 C   0  0  0  0  0  0  0  0  0  0  0  0
    1.8970    3.1095   -1.2884 C   0  0  0  0  0  0  0  0  0  0  0  0
   -1.3522   -1.3772   -1.1383 C   0  0  0  0  0  0  0  0  0  0  0  0
   -0.7354    2.2439   -1.0638 C   0  0  0  0  0  0  0  0  0  0  0  0
    1.5865    1.9891   -0.5120 C   0  0  0  0  0  0  0  0  0  0  0  0
   -0.3300    0.9765    1.8939 C   0  0  0  0  0  0  0  0  0  0  0  0
   -0.6840   -0.0379    2.9813 C   0  0  0  0  0  0  0  0  0  0  0  0
   -1.6492   -1.5211    1.3342 C   0  0  0  0  0  0  0  0  0  0  0  0
    0.2668    1.5075   -0.4069 C   0  0  0  0  0  0  0  0  0  0  0  0
   -1.3554   -0.5418    0.1673 C   0  0  0  0  0  0  0  0  0  0  0  0
    1.8346   -1.1614   -0.1731 C   0  0  0  0  0  0  0  0  0  0  0  0
   -0.0713    0.3093    0.5039 C   0  0  0  0  0  0  0  0  0  0  0  0
   -1.8242   -0.8882    2.6450 N   0  0  0  0  0  0  0  0  0  0  0  0
    1.7358   -1.0139   -1.3791 O   0  0  0  0  0  0  0  0  0  0  0  0
    1.0721   -0.5697    0.7794 O   0  0  0  0  0  0  0  0  0  0  0  0
   -0.9788    0.0270   -4.3229 H   0  0  0  0  0  0  0  0  0  0  0  0
    0.2014   -1.0836   -3.4228 H   0  0  0  0  0  0  0  0  0  0  0  0
    3.1300   -3.4173   -1.1456 H   0  0  0  0  0  0  0  0  0  0  0  0
    4.4597   -3.4080    0.0286 H   0  0  0  0  0  0  0  0  0  0  0  0
    4.2827   -2.0747   -1.1276 H   0  0  0  0  0  0  0  0  0  0  0  0
   -3.2329    0.1824    3.7924 H   0  0  0  0  0  0  0  0  0  0  0  0
   -3.1991    0.6604    2.0869 H   0  0  0  0  0  0  0  0  0  0  0  0
   -3.9335   -0.8755    2.5812 H   0  0  0  0  0  0  0  0  0  0  0  0
   -2.5272   -0.0480   -2.4700 H   0  0  0  0  0  0  0  0  0  0  0  0
    2.3303   -2.7693    1.1304 H   0  0  0  0  0  0  0  0  0  0  0  0
    3.4873   -1.4103    1.1446 H   0  0  0  0  0  0  0  0  0  0  0  0
    1.1302    4.6628   -2.5649 H   0  0  0  0  0  0  0  0  0  0  0  0
   -1.2207    3.9049   -2.3510 H   0  0  0  0  0  0  0  0  0  0  0  0
    2.9275    3.4460   -1.3650 H   0  0  0  0  0  0  0  0  0  0  0  0
   -2.1851   -2.0932   -1.0935 H   0  0  0  0  0  0  0  0  0  0  0  0
   -0.4598   -2.0031   -1.2089 H   0  0  0  0  0  0  0  0  0  0  0  0
   -1.7815    1.9652   -0.9808 H   0  0  0  0  0  0  0  0  0  0  0  0
    2.3993    1.4983    0.0170 H   0  0  0  0  0  0  0  0  0  0  0  0
    0.5714    1.5084    2.2294 H   0  0  0  0  0  0  0  0  0  0  0  0
   -1.1260    1.7294    1.8214 H   0  0  0  0  0  0  0  0  0  0  0  0
   -0.8682    0.4876    3.9269 H   0  0  0  0  0  0  0  0  0  0  0  0
    0.1828   -0.6811    3.1798 H   0  0  0  0  0  0  0  0  0  0  0  0
   -2.5453   -2.1151    1.1114 H   0  0  0  0  0  0  0  0  0  0  0  0
   -0.8363   -2.2558    1.4098 H   0  0  0  0  0  0  0  0  0  0  0  0
   -2.2160    0.1362    0.1007 H   0  0  0  0  0  0  0  0  0  0  0  0
  1  4  2  3
  2  5  1  0
  3 19  1  0
  4  9  1  0
  5 17  1  0
  6  7  2  0
  6  8  1  0
  7 10  1  0
  8 11  2  0
  9 16  1  0
 10 15  2  0
 11 15  1  0
 12 13  1  0
 12 18  1  0
 13 19  1  0
 14 16  1  0
 14 19  1  0
 15 18  1  0
 16 18  1  0
 17 20  2  0
 17 21  1  0
 18 21  1  0
  1 22  1  0
  1 23  1  0
  2 24  1  0
  2 25  1  0
  2 26  1  0
  3 27  1  0
  3 28  1  0
  3 29  1  0
  4 30  1  0
  5 31  1  0
  5 32  1  0
  6 33  1  0
  7 34  1  0
  8 35  1  0
  9 36  1  0
  9 37  1  0
 10 38  1  0
 11 39  1  0
 12 40  1  0
 12 41  1  0
 13 42  1  0
 13 43  1  0
 14 44  1  0
 14 45  1  0
 16 46  1  0
M  END
