
     RDKit          3D

 46 47  0  0  0  0  0  0  0  0999 V2000
   -3.2422   -0.2549   -2.1911 C   0  0  0  0  0  0  0  0  0  0  0  0
   -3.4562   -1.7699   -0.1860 C   0  0  0  0  0  0  0  0  0  0  0  0
   -3.2807    0.8152    2.1814 C   0  0  0  0  0  0  0  0  0  0  0  0
   -3.4420    2.5719    0.3771 C   0  0  0  0  0  0  0  0  0  0  0  0
    5.6826    2.6444    0.3094 C   0  0  0  0  0  0  0  0  0  0  0  0
    4.9857   -0.0954    0.5114 C   0  0  0  0  0  0  0  0  0  0  0  0
    4.5996   -1.4403    0.5921 C   0  0  0  0  0  0  0  0  0  0  0  0
   -0.1693   -0.8596   -0.8639 C   0  0  0  0  0  0  0  0  0  0  0  0
   -0.9841   -0.2876    0.3097 C   0  0  0  0  0  0  0  0  0  0  0  0
    2.7692    0.5423   -0.2211 C   0  0  0  0  0  0  0  0  0  0  0  0
    1.3363   -2.8208   -0.1504 C   0  0  0  0  0  0  0  0  0  0  0  0
   -3.3091   -0.3185   -0.6601 C   0  0  0  0  0  0  0  0  0  0  0  0
   -2.5914    1.4345    0.9612 C   0  0  0  0  0  0  0  0  0  0  0  0
    1.1178   -1.4807   -0.4060 C   0  0  0  0  0  0  0  0  0  0  0  0
    4.0858    0.8912    0.1099 C   0  0  0  0  0  0  0  0  0  0  0  0
    2.3530   -0.8031   -0.1489 C   0  0  0  0  0  0  0  0  0  0  0  0
    3.2800   -1.7615    0.2568 C   0  0  0  0  0  0  0  0  0  0  0  0
    2.6374   -2.9768    0.2445 N   0  0  0  0  0  0  0  0  0  0  0  0
   -2.1934    0.4646   -0.0862 N   0  0  0  0  0  0  0  0  0  0  0  0
    4.3592    2.2290   -0.0013 O   0  0  0  0  0  0  0  0  0  0  0  0
   -4.1392   -0.7059   -2.6305 H   0  0  0  0  0  0  0  0  0  0  0  0
   -2.3779   -0.7843   -2.5992 H   0  0  0  0  0  0  0  0  0  0  0  0
   -3.1981    0.7839   -2.5374 H   0  0  0  0  0  0  0  0  0  0  0  0
   -4.3779   -2.2052   -0.5892 H   0  0  0  0  0  0  0  0  0  0  0  0
   -2.6313   -2.4074   -0.5149 H   0  0  0  0  0  0  0  0  0  0  0  0
   -3.5237   -1.8278    0.9049 H   0  0  0  0  0  0  0  0  0  0  0  0
   -2.6625    0.0347    2.6361 H   0  0  0  0  0  0  0  0  0  0  0  0
   -4.2533    0.3808    1.9299 H   0  0  0  0  0  0  0  0  0  0  0  0
   -3.4534    1.5797    2.9473 H   0  0  0  0  0  0  0  0  0  0  0  0
   -3.5644    3.3706    1.1175 H   0  0  0  0  0  0  0  0  0  0  0  0
   -2.9553    3.0119   -0.5004 H   0  0  0  0  0  0  0  0  0  0  0  0
   -4.4441    2.2447    0.0846 H   0  0  0  0  0  0  0  0  0  0  0  0
    5.7351    3.7280    0.1662 H   0  0  0  0  0  0  0  0  0  0  0  0
    5.9265    2.4353    1.3562 H   0  0  0  0  0  0  0  0  0  0  0  0
    6.4105    2.1840   -0.3668 H   0  0  0  0  0  0  0  0  0  0  0  0
    6.0107    0.1461    0.7735 H   0  0  0  0  0  0  0  0  0  0  0  0
    5.3065   -2.2017    0.9051 H   0  0  0  0  0  0  0  0  0  0  0  0
   -0.7408   -1.6212   -1.4025 H   0  0  0  0  0  0  0  0  0  0  0  0
    0.0521   -0.0630   -1.5852 H   0  0  0  0  0  0  0  0  0  0  0  0
   -0.3077    0.3922    0.8458 H   0  0  0  0  0  0  0  0  0  0  0  0
   -1.2234   -1.0780    1.0316 H   0  0  0  0  0  0  0  0  0  0  0  0
    2.0702    1.3130   -0.5336 H   0  0  0  0  0  0  0  0  0  0  0  0
    0.6754   -3.6747   -0.2188 H   0  0  0  0  0  0  0  0  0  0  0  0
   -4.2601    0.1641   -0.4080 H   0  0  0  0  0  0  0  0  0  0  0  0
   -1.6817    1.9320    1.3242 H   0  0  0  0  0  0  0  0  0  0  0  0
    3.0695   -3.8558    0.4924 H   0  0  0  0  0  0  0  0  0  0  0  0
  1 12  1  0
  2 12  1  0
  3 13  1  0
  4 13  1  0
  5 20  1  0
  6  7  2  0
  6 15  1  0
  7 17  1  0
  8  9  1  0
  8 14  1  0
  9 19  1  0
 10 15  2  0
 10 16  1  0
 11 14  2  0
 11 18  1  0
 12 19  1  0
 13 19  1  0
 14 16  1  0
 15 20  1  0
 16 17  2  0
 17 18  1  0
  1 21  1  0
  1 22  1  0
  1 23  1  0
  2 24  1  0
  2 25  1  0
  2 26  1  0
  3 27  1  0
  3 28  1  0
  3 29  1  0
  4 30  1  0
  4 31  1  0
  4 32  1  0
  5 33  1  0
  5 34  1  0
  5 35  1  0
  6 36  1  0
  7 37  1  0
  8 38  1  0
  8 39  1  0
  9 40  1  0
  9 41  1  0
 10 42  1  0
 11 43  1  0
 12 44  1  0
 13 45  1  0
 18 46  1  0
M  END
