
     RDKit          3D

 48 49  0  0  0  0  0  0  0  0999 V2000
   -2.5382   -0.2414    1.8665 C   0  0  0  0  0  0  0  0  0  0  0  0
   -2.7551    1.7305    0.3303 C   0  0  0  0  0  0  0  0  0  0  0  0
   -4.0543    0.3644   -2.2163 C   0  0  0  0  0  0  0  0  0  0  0  0
   -4.8059   -1.0961   -0.3009 C   0  0  0  0  0  0  0  0  0  0  0  0
    6.1994    1.0587    3.1744 C   0  0  0  0  0  0  0  0  0  0  0  0
    4.2477    1.3962   -0.7351 C   0  0  0  0  0  0  0  0  0  0  0  0
    3.5859    1.1878   -1.9488 C   0  0  0  0  0  0  0  0  0  0  0  0
   -0.0801   -1.7822   -0.2143 C   0  0  0  0  0  0  0  0  0  0  0  0
   -1.5834   -1.8464   -0.5657 C   0  0  0  0  0  0  0  0  0  0  0  0
    2.6320   -0.0078    0.4334 C   0  0  0  0  0  0  0  0  0  0  0  0
    0.6204   -0.8172   -2.5111 C   0  0  0  0  0  0  0  0  0  0  0  0
   -2.1461    0.3327    0.4957 C   0  0  0  0  0  0  0  0  0  0  0  0
   -3.6627   -0.7738   -1.2630 C   0  0  0  0  0  0  0  0  0  0  0  0
    5.7516    0.7356    1.7792 C   0  0  0  0  0  0  0  0  0  0  0  0
    0.7768   -0.9737   -1.1462 C   0  0  0  0  0  0  0  0  0  0  0  0
    3.7830    0.7886    0.4277 C   0  0  0  0  0  0  0  0  0  0  0  0
    1.9492   -0.2287   -0.7815 C   0  0  0  0  0  0  0  0  0  0  0  0
    2.4460    0.3709   -1.9401 C   0  0  0  0  0  0  0  0  0  0  0  0
    1.6155    0.0003   -2.9722 N   0  0  0  0  0  0  0  0  0  0  0  0
   -2.3278   -0.5670   -0.6624 N   0  0  0  0  0  0  0  0  0  0  0  0
    6.4887    0.2996    0.9050 O   0  0  0  0  0  0  0  0  0  0  0  0
    4.3932    1.0218    1.6727 O   0  0  0  0  0  0  0  0  0  0  0  0
   -3.6180   -0.3624    1.9791 H   0  0  0  0  0  0  0  0  0  0  0  0
   -2.0629   -1.2076    2.0635 H   0  0  0  0  0  0  0  0  0  0  0  0
   -2.2091    0.4370    2.6634 H   0  0  0  0  0  0  0  0  0  0  0  0
   -2.4613    2.1802   -0.6240 H   0  0  0  0  0  0  0  0  0  0  0  0
   -3.8465    1.7213    0.4022 H   0  0  0  0  0  0  0  0  0  0  0  0
   -2.3891    2.3977    1.1202 H   0  0  0  0  0  0  0  0  0  0  0  0
   -4.8738    0.0392   -2.8694 H   0  0  0  0  0  0  0  0  0  0  0  0
   -3.2149    0.6433   -2.8643 H   0  0  0  0  0  0  0  0  0  0  0  0
   -4.4033    1.2602   -1.6950 H   0  0  0  0  0  0  0  0  0  0  0  0
   -4.5426   -1.9242    0.3663 H   0  0  0  0  0  0  0  0  0  0  0  0
   -5.6946   -1.4070   -0.8632 H   0  0  0  0  0  0  0  0  0  0  0  0
   -5.0975   -0.2319    0.3020 H   0  0  0  0  0  0  0  0  0  0  0  0
    6.1081    2.1329    3.3529 H   0  0  0  0  0  0  0  0  0  0  0  0
    5.6033    0.4934    3.8964 H   0  0  0  0  0  0  0  0  0  0  0  0
    7.2471    0.7683    3.2928 H   0  0  0  0  0  0  0  0  0  0  0  0
    5.1309    2.0296   -0.7120 H   0  0  0  0  0  0  0  0  0  0  0  0
    3.9479    1.6460   -2.8634 H   0  0  0  0  0  0  0  0  0  0  0  0
    0.0423   -1.4189    0.8131 H   0  0  0  0  0  0  0  0  0  0  0  0
    0.3117   -2.8091   -0.2139 H   0  0  0  0  0  0  0  0  0  0  0  0
   -1.6507   -2.3668   -1.5313 H   0  0  0  0  0  0  0  0  0  0  0  0
   -2.0771   -2.5045    0.1606 H   0  0  0  0  0  0  0  0  0  0  0  0
    2.2744   -0.4491    1.3572 H   0  0  0  0  0  0  0  0  0  0  0  0
   -0.1293   -1.2033   -3.1901 H   0  0  0  0  0  0  0  0  0  0  0  0
   -1.0691    0.5354    0.5573 H   0  0  0  0  0  0  0  0  0  0  0  0
   -3.5906   -1.6456   -1.9301 H   0  0  0  0  0  0  0  0  0  0  0  0
    1.7289    0.2929   -3.9328 H   0  0  0  0  0  0  0  0  0  0  0  0
  1 12  1  0
  2 12  1  0
  3 13  1  0
  4 13  1  0
  5 14  1  0
  6  7  2  0
  6 16  1  0
  7 18  1  0
  8  9  1  0
  8 15  1  0
  9 20  1  0
 10 16  2  0
 10 17  1  0
 11 15  2  0
 11 19  1  0
 12 20  1  0
 13 20  1  0
 14 21  2  0
 14 22  1  0
 15 17  1  0
 16 22  1  0
 17 18  2  0
 18 19  1  0
  1 23  1  0
  1 24  1  0
  1 25  1  0
  2 26  1  0
  2 27  1  0
  2 28  1  0
  3 29  1  0
  3 30  1  0
  3 31  1  0
  4 32  1  0
  4 33  1  0
  4 34  1  0
  5 35  1  0
  5 36  1  0
  5 37  1  0
  6 38  1  0
  7 39  1  0
  8 40  1  0
  8 41  1  0
  9 42  1  0
  9 43  1  0
 10 44  1  0
 11 45  1  0
 12 46  1  0
 13 47  1  0
 19 48  1  0
M  END
