
     RDKit          3D

 46 48  0  0  0  0  0  0  0  0999 V2000
   -4.5477   -0.4522    0.0896 C   0  0  0  0  0  0  0  0  0  0  0  0
    1.0130    4.2291   -0.3101 C   0  0  0  0  0  0  0  0  0  0  0  0
    3.6244   -1.9701    0.5452 C   0  0  0  0  0  0  0  0  0  0  0  0
    0.6610    3.6736    0.9130 C   0  0  0  0  0  0  0  0  0  0  0  0
    0.9700    3.4437   -1.4554 C   0  0  0  0  0  0  0  0  0  0  0  0
    2.8489   -2.1279   -0.7535 C   0  0  0  0  0  0  0  0  0  0  0  0
    2.6626   -1.7704    1.7064 C   0  0  0  0  0  0  0  0  0  0  0  0
    0.2561    2.3367    0.9855 C   0  0  0  0  0  0  0  0  0  0  0  0
    0.5642    2.1057   -1.3802 C   0  0  0  0  0  0  0  0  0  0  0  0
   -2.5074   -0.2168   -1.3638 C   0  0  0  0  0  0  0  0  0  0  0  0
   -2.3006   -1.2870    0.9302 C   0  0  0  0  0  0  0  0  0  0  0  0
   -1.0043   -0.4911   -1.3596 C   0  0  0  0  0  0  0  0  0  0  0  0
   -1.3410   -0.1109    1.1076 C   0  0  0  0  0  0  0  0  0  0  0  0
    1.8492   -0.9842   -0.9495 C   0  0  0  0  0  0  0  0  0  0  0  0
    1.6687   -0.6389    1.4227 C   0  0  0  0  0  0  0  0  0  0  0  0
   -3.2053   -1.0741   -0.2954 C   0  0  0  0  0  0  0  0  0  0  0  0
    0.1772    1.5170   -0.1614 C   0  0  0  0  0  0  0  0  0  0  0  0
   -0.2686    0.0261   -0.0532 C   0  0  0  0  0  0  0  0  0  0  0  0
    0.9063   -0.8929    0.1854 N   0  0  0  0  0  0  0  0  0  0  0  0
   -4.4153    0.5292    0.5571 H   0  0  0  0  0  0  0  0  0  0  0  0
   -5.0838   -1.0938    0.7968 H   0  0  0  0  0  0  0  0  0  0  0  0
   -5.1829   -0.3249   -0.7934 H   0  0  0  0  0  0  0  0  0  0  0  0
    1.3296    5.2665   -0.3695 H   0  0  0  0  0  0  0  0  0  0  0  0
    4.2524   -2.8503    0.7207 H   0  0  0  0  0  0  0  0  0  0  0  0
    4.2944   -1.1048    0.4702 H   0  0  0  0  0  0  0  0  0  0  0  0
    0.7048    4.2757    1.8167 H   0  0  0  0  0  0  0  0  0  0  0  0
    1.2597    3.8667   -2.4140 H   0  0  0  0  0  0  0  0  0  0  0  0
    3.5471   -2.1568   -1.5978 H   0  0  0  0  0  0  0  0  0  0  0  0
    2.3137   -3.0861   -0.7488 H   0  0  0  0  0  0  0  0  0  0  0  0
    2.1137   -2.7021    1.8942 H   0  0  0  0  0  0  0  0  0  0  0  0
    3.2284   -1.5445    2.6175 H   0  0  0  0  0  0  0  0  0  0  0  0
    0.0113    1.9421    1.9688 H   0  0  0  0  0  0  0  0  0  0  0  0
    0.5830    1.5370   -2.3041 H   0  0  0  0  0  0  0  0  0  0  0  0
   -2.6894    0.8531   -1.2042 H   0  0  0  0  0  0  0  0  0  0  0  0
   -2.9270   -0.4605   -2.3474 H   0  0  0  0  0  0  0  0  0  0  0  0
   -2.9041   -1.4192    1.8359 H   0  0  0  0  0  0  0  0  0  0  0  0
   -1.7220   -2.2114    0.8100 H   0  0  0  0  0  0  0  0  0  0  0  0
   -0.5764   -0.0939   -2.2823 H   0  0  0  0  0  0  0  0  0  0  0  0
   -0.8862   -1.5824   -1.4414 H   0  0  0  0  0  0  0  0  0  0  0  0
   -1.9541    0.8006    1.1585 H   0  0  0  0  0  0  0  0  0  0  0  0
   -0.8852   -0.1875    2.0971 H   0  0  0  0  0  0  0  0  0  0  0  0
    2.4016   -0.0456   -1.0790 H   0  0  0  0  0  0  0  0  0  0  0  0
    1.3346   -1.1873   -1.8928 H   0  0  0  0  0  0  0  0  0  0  0  0
    2.2186    0.3081    1.3608 H   0  0  0  0  0  0  0  0  0  0  0  0
    1.0236   -0.5799    2.3010 H   0  0  0  0  0  0  0  0  0  0  0  0
   -3.4167   -2.0632   -0.7230 H   0  0  0  0  0  0  0  0  0  0  0  0
  1 16  1  0
  2  4  2  0
  2  5  1  0
  3  6  1  0
  3  7  1  0
  4  8  1  0
  5  9  2  0
  6 14  1  0
  7 15  1  0
  8 17  2  0
  9 17  1  0
 10 12  1  0
 10 16  1  0
 11 13  1  0
 11 16  1  0
 12 18  1  0
 13 18  1  0
 14 19  1  0
 15 19  1  0
 17 18  1  0
 18 19  1  0
  1 20  1  0
  1 21  1  0
  1 22  1  0
  2 23  1  0
  3 24  1  0
  3 25  1  0
  4 26  1  0
  5 27  1  0
  6 28  1  0
  6 29  1  0
  7 30  1  0
  7 31  1  0
  8 32  1  0
  9 33  1  0
 10 34  1  0
 10 35  1  0
 11 36  1  0
 11 37  1  0
 12 38  1  0
 12 39  1  0
 13 40  1  0
 13 41  1  0
 14 42  1  0
 14 43  1  0
 15 44  1  0
 15 45  1  0
 16 46  1  0
M  END
