
     RDKit          3D

 46 48  0  0  0  0  0  0  0  0999 V2000
    4.8918    0.3523   -0.6895 C   0  0  0  0  0  0  0  0  0  0  0  0
   -2.7381    3.5726    0.3866 C   0  0  0  0  0  0  0  0  0  0  0  0
   -2.2464   -3.1360    0.5027 C   0  0  0  0  0  0  0  0  0  0  0  0
   -2.6449    2.7897    1.5315 C   0  0  0  0  0  0  0  0  0  0  0  0
   -2.2325    3.0919   -0.8145 C   0  0  0  0  0  0  0  0  0  0  0  0
   -1.5532   -2.6824   -0.7833 C   0  0  0  0  0  0  0  0  0  0  0  0
   -2.1900   -2.0788    1.6075 C   0  0  0  0  0  0  0  0  0  0  0  0
   -2.0428    1.5267    1.4785 C   0  0  0  0  0  0  0  0  0  0  0  0
   -1.6317    1.8307   -0.8658 C   0  0  0  0  0  0  0  0  0  0  0  0
    2.6359   -0.3719   -1.5464 C   0  0  0  0  0  0  0  0  0  0  0  0
    2.8492    0.5023    0.7776 C   0  0  0  0  0  0  0  0  0  0  0  0
   -1.6398   -1.1672   -0.9309 C   0  0  0  0  0  0  0  0  0  0  0  0
   -0.9115   -1.2516    1.4950 C   0  0  0  0  0  0  0  0  0  0  0  0
    1.1161   -0.1873   -1.4470 C   0  0  0  0  0  0  0  0  0  0  0  0
    1.3303    0.6850    0.8076 C   0  0  0  0  0  0  0  0  0  0  0  0
    3.3883    0.6107   -0.6489 C   0  0  0  0  0  0  0  0  0  0  0  0
   -1.5146    1.0147    0.2798 C   0  0  0  0  0  0  0  0  0  0  0  0
   -0.8353   -0.3822    0.1758 C   0  0  0  0  0  0  0  0  0  0  0  0
    0.6467   -0.2882   -0.0644 N   0  0  0  0  0  0  0  0  0  0  0  0
    5.1342   -0.6543   -0.3319 H   0  0  0  0  0  0  0  0  0  0  0  0
    5.4259    1.0723   -0.0606 H   0  0  0  0  0  0  0  0  0  0  0  0
    5.2744    0.4497   -1.7109 H   0  0  0  0  0  0  0  0  0  0  0  0
   -3.2061    4.5519    0.4305 H   0  0  0  0  0  0  0  0  0  0  0  0
   -1.7783   -4.0658    0.8476 H   0  0  0  0  0  0  0  0  0  0  0  0
   -3.2965   -3.3775    0.2986 H   0  0  0  0  0  0  0  0  0  0  0  0
   -3.0428    3.1584    2.4736 H   0  0  0  0  0  0  0  0  0  0  0  0
   -2.3050    3.6945   -1.7159 H   0  0  0  0  0  0  0  0  0  0  0  0
   -2.0236   -3.1752   -1.6417 H   0  0  0  0  0  0  0  0  0  0  0  0
   -0.5032   -2.9983   -0.7776 H   0  0  0  0  0  0  0  0  0  0  0  0
   -2.2359   -2.5738    2.5842 H   0  0  0  0  0  0  0  0  0  0  0  0
   -3.0675   -1.4244    1.5475 H   0  0  0  0  0  0  0  0  0  0  0  0
   -2.0085    0.9633    2.4050 H   0  0  0  0  0  0  0  0  0  0  0  0
   -1.2574    1.4874   -1.8263 H   0  0  0  0  0  0  0  0  0  0  0  0
    2.8920   -1.4034   -1.2695 H   0  0  0  0  0  0  0  0  0  0  0  0
    2.9479   -0.2389   -2.5894 H   0  0  0  0  0  0  0  0  0  0  0  0
    3.3183    1.2631    1.4131 H   0  0  0  0  0  0  0  0  0  0  0  0
    3.1075   -0.4744    1.2075 H   0  0  0  0  0  0  0  0  0  0  0  0
   -1.3484   -0.8742   -1.9444 H   0  0  0  0  0  0  0  0  0  0  0  0
   -2.7057   -0.8969   -0.8751 H   0  0  0  0  0  0  0  0  0  0  0  0
   -0.0783   -1.9720    1.5121 H   0  0  0  0  0  0  0  0  0  0  0  0
   -0.7717   -0.6566    2.4023 H   0  0  0  0  0  0  0  0  0  0  0  0
    0.8461    0.7760   -1.8911 H   0  0  0  0  0  0  0  0  0  0  0  0
    0.6878   -0.9773   -2.0698 H   0  0  0  0  0  0  0  0  0  0  0  0
    1.0937    1.7134    0.5069 H   0  0  0  0  0  0  0  0  0  0  0  0
    1.0156    0.5724    1.8504 H   0  0  0  0  0  0  0  0  0  0  0  0
    3.2077    1.6297   -1.0163 H   0  0  0  0  0  0  0  0  0  0  0  0
  1 16  1  0
  2  4  2  0
  2  5  1  0
  3  6  1  0
  3  7  1  0
  4  8  1  0
  5  9  2  0
  6 12  1  0
  7 13  1  0
  8 17  2  0
  9 17  1  0
 10 14  1  0
 10 16  1  0
 11 15  1  0
 11 16  1  0
 12 18  1  0
 13 18  1  0
 14 19  1  0
 15 19  1  0
 17 18  1  0
 18 19  1  0
  1 20  1  0
  1 21  1  0
  1 22  1  0
  2 23  1  0
  3 24  1  0
  3 25  1  0
  4 26  1  0
  5 27  1  0
  6 28  1  0
  6 29  1  0
  7 30  1  0
  7 31  1  0
  8 32  1  0
  9 33  1  0
 10 34  1  0
 10 35  1  0
 11 36  1  0
 11 37  1  0
 12 38  1  0
 12 39  1  0
 13 40  1  0
 13 41  1  0
 14 42  1  0
 14 43  1  0
 15 44  1  0
 15 45  1  0
 16 46  1  0
M  END
