
     RDKit          3D

 46 48  0  0  0  0  0  0  0  0999 V2000
   -1.5189    0.9110    2.0029 C   0  0  0  0  0  0  0  0  0  0  0  0
    0.4817    4.2618   -0.9087 C   0  0  0  0  0  0  0  0  0  0  0  0
    3.2902   -2.1901    0.7898 C   0  0  0  0  0  0  0  0  0  0  0  0
   -0.5160    3.6357   -1.6426 C   0  0  0  0  0  0  0  0  0  0  0  0
    1.1807    3.5344    0.0434 C   0  0  0  0  0  0  0  0  0  0  0  0
   -3.2422   -1.2812   -0.6656 C   0  0  0  0  0  0  0  0  0  0  0  0
   -1.9591   -1.8526   -1.2623 C   0  0  0  0  0  0  0  0  0  0  0  0
    2.8868   -1.8906   -0.6473 C   0  0  0  0  0  0  0  0  0  0  0  0
    2.0543   -2.2936    1.6724 C   0  0  0  0  0  0  0  0  0  0  0  0
   -2.9923   -0.0565    0.2164 C   0  0  0  0  0  0  0  0  0  0  0  0
   -0.8021    2.2793   -1.4360 C   0  0  0  0  0  0  0  0  0  0  0  0
    0.8899    2.1798    0.2452 C   0  0  0  0  0  0  0  0  0  0  0  0
   -0.9626   -0.7337   -1.5577 C   0  0  0  0  0  0  0  0  0  0  0  0
    1.9783   -0.6619   -0.7131 C   0  0  0  0  0  0  0  0  0  0  0  0
    1.1349   -1.0731    1.5252 C   0  0  0  0  0  0  0  0  0  0  0  0
   -1.5893   -0.1024    0.8511 C   0  0  0  0  0  0  0  0  0  0  0  0
   -0.0876    1.4961   -0.5070 C   0  0  0  0  0  0  0  0  0  0  0  0
   -0.4212   -0.0112   -0.2429 C   0  0  0  0  0  0  0  0  0  0  0  0
    0.7781   -0.8530    0.1231 N   0  0  0  0  0  0  0  0  0  0  0  0
   -0.5394    0.9217    2.4867 H   0  0  0  0  0  0  0  0  0  0  0  0
   -1.7538    1.9260    1.6662 H   0  0  0  0  0  0  0  0  0  0  0  0
   -2.2534    0.6538    2.7749 H   0  0  0  0  0  0  0  0  0  0  0  0
    0.7016    5.3135   -1.0666 H   0  0  0  0  0  0  0  0  0  0  0  0
    3.9418   -1.3907    1.1634 H   0  0  0  0  0  0  0  0  0  0  0  0
    3.8644   -3.1219    0.8341 H   0  0  0  0  0  0  0  0  0  0  0  0
   -1.0872    4.2018   -2.3742 H   0  0  0  0  0  0  0  0  0  0  0  0
    1.9500    4.0167    0.6406 H   0  0  0  0  0  0  0  0  0  0  0  0
   -3.7403   -2.0662   -0.0839 H   0  0  0  0  0  0  0  0  0  0  0  0
   -3.9385   -1.0037   -1.4661 H   0  0  0  0  0  0  0  0  0  0  0  0
   -1.5120   -2.5830   -0.5774 H   0  0  0  0  0  0  0  0  0  0  0  0
   -2.1993   -2.3978   -2.1825 H   0  0  0  0  0  0  0  0  0  0  0  0
    2.3689   -2.7576   -1.0765 H   0  0  0  0  0  0  0  0  0  0  0  0
    3.7840   -1.7205   -1.2533 H   0  0  0  0  0  0  0  0  0  0  0  0
    1.4960   -3.2015    1.4098 H   0  0  0  0  0  0  0  0  0  0  0  0
    2.3585   -2.4004    2.7201 H   0  0  0  0  0  0  0  0  0  0  0  0
   -3.7690   -0.0216    0.9904 H   0  0  0  0  0  0  0  0  0  0  0  0
   -3.1131    0.8587   -0.3736 H   0  0  0  0  0  0  0  0  0  0  0  0
   -1.6253    1.8740   -2.0148 H   0  0  0  0  0  0  0  0  0  0  0  0
    1.4474    1.6698    1.0224 H   0  0  0  0  0  0  0  0  0  0  0  0
   -0.1525   -1.1587   -2.1598 H   0  0  0  0  0  0  0  0  0  0  0  0
   -1.4601   -0.0505   -2.2479 H   0  0  0  0  0  0  0  0  0  0  0  0
    2.5566    0.2082   -0.3831 H   0  0  0  0  0  0  0  0  0  0  0  0
    1.7343   -0.4852   -1.7651 H   0  0  0  0  0  0  0  0  0  0  0  0
    0.2694   -1.2877    2.1542 H   0  0  0  0  0  0  0  0  0  0  0  0
    1.6328   -0.1999    1.9572 H   0  0  0  0  0  0  0  0  0  0  0  0
   -1.5451   -1.0953    1.3185 H   0  0  0  0  0  0  0  0  0  0  0  0
  1 16  1  0
  2  4  2  0
  2  5  1  0
  3  8  1  0
  3  9  1  0
  4 11  1  0
  5 12  2  0
  6  7  1  0
  6 10  1  0
  7 13  1  0
  8 14  1  0
  9 15  1  0
 10 16  1  0
 11 17  2  0
 12 17  1  0
 13 18  1  0
 14 19  1  0
 15 19  1  0
 16 18  1  0
 17 18  1  0
 18 19  1  0
  1 20  1  0
  1 21  1  0
  1 22  1  0
  2 23  1  0
  3 24  1  0
  3 25  1  0
  4 26  1  0
  5 27  1  0
  6 28  1  0
  6 29  1  0
  7 30  1  0
  7 31  1  0
  8 32  1  0
  8 33  1  0
  9 34  1  0
  9 35  1  0
 10 36  1  0
 10 37  1  0
 11 38  1  0
 12 39  1  0
 13 40  1  0
 13 41  1  0
 14 42  1  0
 14 43  1  0
 15 44  1  0
 15 45  1  0
 16 46  1  0
M  END
