
     RDKit          3D

 50 51  0  0  0  0  0  0  0  0999 V2000
   -3.7360    2.7618    2.0845 C   0  0  0  0  0  0  0  0  0  0  0  0
   -2.5835    2.9788    1.1218 C   0  0  0  0  0  0  0  0  0  0  0  0
   -4.4282   -3.6913    0.2977 C   0  0  0  0  0  0  0  0  0  0  0  0
   -4.3398   -2.6570    1.2225 C   0  0  0  0  0  0  0  0  0  0  0  0
   -3.6303   -3.6669   -0.8417 C   0  0  0  0  0  0  0  0  0  0  0  0
   -3.4567   -1.5971    1.0034 C   0  0  0  0  0  0  0  0  0  0  0  0
   -2.7460   -2.6059   -1.0629 C   0  0  0  0  0  0  0  0  0  0  0  0
   -1.0590   -0.2088   -1.7604 C   0  0  0  0  0  0  0  0  0  0  0  0
   -0.5247   -0.5672    0.6983 C   0  0  0  0  0  0  0  0  0  0  0  0
    0.2862   -0.9187   -1.8932 C   0  0  0  0  0  0  0  0  0  0  0  0
    0.7599    0.1459    0.2735 C   0  0  0  0  0  0  0  0  0  0  0  0
    2.2432    0.5232   -1.6447 C   0  0  0  0  0  0  0  0  0  0  0  0
    6.5570    0.7656   -0.4298 C   0  0  0  0  0  0  0  0  0  0  0  0
    3.4413    0.9932   -0.7939 C   0  0  0  0  0  0  0  0  0  0  0  0
    5.3738    0.2398    0.3782 C   0  0  0  0  0  0  0  0  0  0  0  0
   -2.6481   -1.5419   -0.1516 C   0  0  0  0  0  0  0  0  0  0  0  0
   -2.4460    0.9663   -0.1314 C   0  0  0  0  0  0  0  0  0  0  0  0
   -1.6697   -0.3590   -0.3352 C   0  0  0  0  0  0  0  0  0  0  0  0
    1.3034   -0.3969   -0.9748 N   0  0  0  0  0  0  0  0  0  0  0  0
    7.6331    1.1016    0.4374 O   0  0  0  0  0  0  0  0  0  0  0  0
   -3.4175    1.2978   -0.8039 O   0  0  0  0  0  0  0  0  0  0  0  0
    4.2767   -0.1170   -0.4600 O   0  0  0  0  0  0  0  0  0  0  0  0
   -1.9165    1.7346    0.8615 O   0  0  0  0  0  0  0  0  0  0  0  0
   -3.3833    2.2848    3.0049 H   0  0  0  0  0  0  0  0  0  0  0  0
   -4.2127    3.7124    2.3394 H   0  0  0  0  0  0  0  0  0  0  0  0
   -4.4907    2.0974    1.6516 H   0  0  0  0  0  0  0  0  0  0  0  0
   -1.8450    3.6468    1.5772 H   0  0  0  0  0  0  0  0  0  0  0  0
   -2.9172    3.4550    0.1929 H   0  0  0  0  0  0  0  0  0  0  0  0
   -5.1144   -4.5168    0.4656 H   0  0  0  0  0  0  0  0  0  0  0  0
   -4.9569   -2.6732    2.1169 H   0  0  0  0  0  0  0  0  0  0  0  0
   -3.6921   -4.4779   -1.5632 H   0  0  0  0  0  0  0  0  0  0  0  0
   -3.4078   -0.8095    1.7533 H   0  0  0  0  0  0  0  0  0  0  0  0
   -2.1379   -2.6449   -1.9615 H   0  0  0  0  0  0  0  0  0  0  0  0
   -0.8925    0.8534   -1.9942 H   0  0  0  0  0  0  0  0  0  0  0  0
   -1.7515   -0.5556   -2.5363 H   0  0  0  0  0  0  0  0  0  0  0  0
   -0.2968   -1.6376    0.8108 H   0  0  0  0  0  0  0  0  0  0  0  0
   -0.8181   -0.2297    1.7002 H   0  0  0  0  0  0  0  0  0  0  0  0
    0.6235   -0.8709   -2.9361 H   0  0  0  0  0  0  0  0  0  0  0  0
    0.1598   -1.9873   -1.6820 H   0  0  0  0  0  0  0  0  0  0  0  0
    0.5614    1.2206    0.1789 H   0  0  0  0  0  0  0  0  0  0  0  0
    1.5032    0.0231    1.0695 H   0  0  0  0  0  0  0  0  0  0  0  0
    1.7020    1.4068   -2.0058 H   0  0  0  0  0  0  0  0  0  0  0  0
    2.6587    0.0088   -2.5208 H   0  0  0  0  0  0  0  0  0  0  0  0
    6.8941    0.0062   -1.1434 H   0  0  0  0  0  0  0  0  0  0  0  0
    6.2807    1.6571   -1.0007 H   0  0  0  0  0  0  0  0  0  0  0  0
    3.1018    1.4989    0.1166 H   0  0  0  0  0  0  0  0  0  0  0  0
    4.0205    1.7122   -1.3835 H   0  0  0  0  0  0  0  0  0  0  0  0
    5.6859   -0.6650    0.9123 H   0  0  0  0  0  0  0  0  0  0  0  0
    5.0676    0.9556    1.1509 H   0  0  0  0  0  0  0  0  0  0  0  0
    8.3851    1.3487   -0.1280 H   0  0  0  0  0  0  0  0  0  0  0  0
  1  2  1  0
  2 23  1  0
  3  4  2  0
  3  5  1  0
  4  6  1  0
  5  7  2  0
  6 16  2  0
  7 16  1  0
  8 10  1  0
  8 18  1  0
  9 11  1  0
  9 18  1  0
 10 19  1  0
 11 19  1  0
 12 14  1  0
 12 19  1  0
 13 15  1  0
 13 20  1  0
 14 22  1  0
 15 22  1  0
 16 18  1  0
 17 18  1  0
 17 21  2  0
 17 23  1  0
  1 24  1  0
  1 25  1  0
  1 26  1  0
  2 27  1  0
  2 28  1  0
  3 29  1  0
  4 30  1  0
  5 31  1  0
  6 32  1  0
  7 33  1  0
  8 34  1  0
  8 35  1  0
  9 36  1  0
  9 37  1  0
 10 38  1  0
 10 39  1  0
 11 40  1  0
 11 41  1  0
 12 42  1  0
 12 43  1  0
 13 44  1  0
 13 45  1  0
 14 46  1  0
 14 47  1  0
 15 48  1  0
 15 49  1  0
 20 50  1  0
M  END
