
     RDKit          3D

 48 49  0  0  0  0  0  0  0  0999 V2000
   -3.3180   -3.4288   -3.7674 C   0  0  0  0  0  0  0  0  0  0  0  0
   -2.7386    2.6106    2.0042 C   0  0  0  0  0  0  0  0  0  0  0  0
   -3.2443   -2.7503   -2.4082 C   0  0  0  0  0  0  0  0  0  0  0  0
   -1.9555    2.9865    0.7539 C   0  0  0  0  0  0  0  0  0  0  0  0
   -1.9782   -1.8992   -2.2732 C   0  0  0  0  0  0  0  0  0  0  0  0
   -1.8320    1.8349   -0.2480 C   0  0  0  0  0  0  0  0  0  0  0  0
    4.1501   -0.9570    3.0024 C   0  0  0  0  0  0  0  0  0  0  0  0
    4.5966    0.2603    3.5108 C   0  0  0  0  0  0  0  0  0  0  0  0
    3.4283   -1.0078    1.8036 C   0  0  0  0  0  0  0  0  0  0  0  0
    4.3401    1.4583    2.8373 C   0  0  0  0  0  0  0  0  0  0  0  0
    1.7839   -0.4717   -1.0337 C   0  0  0  0  0  0  0  0  0  0  0  0
   -1.9092   -1.2292   -0.8925 C   0  0  0  0  0  0  0  0  0  0  0  0
   -0.9620    0.6808    0.2692 C   0  0  0  0  0  0  0  0  0  0  0  0
    0.4929   -1.1168   -0.4872 C   0  0  0  0  0  0  0  0  0  0  0  0
    2.5515    1.8634   -0.2847 C   0  0  0  0  0  0  0  0  0  0  0  0
    2.4579    0.4959   -0.1096 C   0  0  0  0  0  0  0  0  0  0  0  0
    3.1526    0.1868    1.1058 C   0  0  0  0  0  0  0  0  0  0  0  0
    3.6190    1.3886    1.6388 C   0  0  0  0  0  0  0  0  0  0  0  0
    3.2363    2.3889    0.7763 N   0  0  0  0  0  0  0  0  0  0  0  0
   -0.7361   -0.3373   -0.7796 N   0  0  0  0  0  0  0  0  0  0  0  0
   -4.2379   -4.0161   -3.8474 H   0  0  0  0  0  0  0  0  0  0  0  0
   -3.3148   -2.6922   -4.5764 H   0  0  0  0  0  0  0  0  0  0  0  0
   -2.4694   -4.1051   -3.9139 H   0  0  0  0  0  0  0  0  0  0  0  0
   -2.8814    3.4926    2.6378 H   0  0  0  0  0  0  0  0  0  0  0  0
   -3.7262    2.2144    1.7438 H   0  0  0  0  0  0  0  0  0  0  0  0
   -2.2065    1.8619    2.5978 H   0  0  0  0  0  0  0  0  0  0  0  0
   -3.2665   -3.5145   -1.6222 H   0  0  0  0  0  0  0  0  0  0  0  0
   -4.1318   -2.1209   -2.2741 H   0  0  0  0  0  0  0  0  0  0  0  0
   -0.9605    3.3448    1.0459 H   0  0  0  0  0  0  0  0  0  0  0  0
   -2.4674    3.8230    0.2610 H   0  0  0  0  0  0  0  0  0  0  0  0
   -1.9753   -1.1290   -3.0556 H   0  0  0  0  0  0  0  0  0  0  0  0
   -1.1012   -2.5333   -2.4446 H   0  0  0  0  0  0  0  0  0  0  0  0
   -2.8372    1.4827   -0.5015 H   0  0  0  0  0  0  0  0  0  0  0  0
   -1.3937    2.2289   -1.1727 H   0  0  0  0  0  0  0  0  0  0  0  0
    4.3633   -1.8781    3.5393 H   0  0  0  0  0  0  0  0  0  0  0  0
    5.1547    0.2804    4.4447 H   0  0  0  0  0  0  0  0  0  0  0  0
    3.0883   -1.9634    1.4153 H   0  0  0  0  0  0  0  0  0  0  0  0
    4.6936    2.4048    3.2337 H   0  0  0  0  0  0  0  0  0  0  0  0
    1.5838    0.0045   -2.0027 H   0  0  0  0  0  0  0  0  0  0  0  0
    2.5028   -1.2748   -1.2468 H   0  0  0  0  0  0  0  0  0  0  0  0
   -2.8380   -0.6600   -0.7712 H   0  0  0  0  0  0  0  0  0  0  0  0
   -1.9066   -1.9830   -0.0932 H   0  0  0  0  0  0  0  0  0  0  0  0
   -0.0176    1.1205    0.5935 H   0  0  0  0  0  0  0  0  0  0  0  0
   -1.4035    0.2194    1.1610 H   0  0  0  0  0  0  0  0  0  0  0  0
    0.5682   -1.3465    0.5839 H   0  0  0  0  0  0  0  0  0  0  0  0
    0.4267   -2.0896   -0.9896 H   0  0  0  0  0  0  0  0  0  0  0  0
    2.1755    2.5036   -1.0720 H   0  0  0  0  0  0  0  0  0  0  0  0
    3.4435    3.3685    0.9077 H   0  0  0  0  0  0  0  0  0  0  0  0
  1  3  1  0
  2  4  1  0
  3  5  1  0
  4  6  1  0
  5 12  1  0
  6 13  1  0
  7  8  2  0
  7  9  1  0
  8 10  1  0
  9 17  2  0
 10 18  2  0
 11 14  1  0
 11 16  1  0
 12 20  1  0
 13 20  1  0
 14 20  1  0
 15 16  2  0
 15 19  1  0
 16 17  1  0
 17 18  1  0
 18 19  1  0
  1 21  1  0
  1 22  1  0
  1 23  1  0
  2 24  1  0
  2 25  1  0
  2 26  1  0
  3 27  1  0
  3 28  1  0
  4 29  1  0
  4 30  1  0
  5 31  1  0
  5 32  1  0
  6 33  1  0
  6 34  1  0
  7 35  1  0
  8 36  1  0
  9 37  1  0
 10 38  1  0
 11 39  1  0
 11 40  1  0
 12 41  1  0
 12 42  1  0
 13 43  1  0
 13 44  1  0
 14 45  1  0
 14 46  1  0
 15 47  1  0
 19 48  1  0
M  END
