
     RDKit          3D

 49 50  0  0  0  0  0  0  0  0999 V2000
   -2.0816    2.6383   -1.9778 C   0  0  0  0  0  0  0  0  0  0  0  0
   -0.7001    3.1895    0.0466 C   0  0  0  0  0  0  0  0  0  0  0  0
   -4.0272   -2.9171   -0.0198 C   0  0  0  0  0  0  0  0  0  0  0  0
   -2.4437   -2.1154    1.7322 C   0  0  0  0  0  0  0  0  0  0  0  0
    5.6146    1.0492   -0.1839 C   0  0  0  0  0  0  0  0  0  0  0  0
    5.4584   -0.0573    0.6563 C   0  0  0  0  0  0  0  0  0  0  0  0
    4.5657    1.4979   -0.9838 C   0  0  0  0  0  0  0  0  0  0  0  0
    0.6845   -1.1412   -0.4971 C   0  0  0  0  0  0  0  0  0  0  0  0
   -0.2592   -0.1474    0.2087 C   0  0  0  0  0  0  0  0  0  0  0  0
    2.4913   -2.0929    1.0660 C   0  0  0  0  0  0  0  0  0  0  0  0
   -2.3324    1.1761    0.1025 C   0  0  0  0  0  0  0  0  0  0  0  0
   -2.3650   -1.1483   -0.6648 C   0  0  0  0  0  0  0  0  0  0  0  0
   -2.0154    2.5899   -0.4480 C   0  0  0  0  0  0  0  0  0  0  0  0
   -3.2330   -1.7077    0.4918 C   0  0  0  0  0  0  0  0  0  0  0  0
    2.0485   -1.1776    0.1300 C   0  0  0  0  0  0  0  0  0  0  0  0
    4.2136   -0.7007    0.6635 C   0  0  0  0  0  0  0  0  0  0  0  0
    3.3297    0.8414   -0.9600 C   0  0  0  0  0  0  0  0  0  0  0  0
    3.1407   -0.2826   -0.1273 C   0  0  0  0  0  0  0  0  0  0  0  0
    3.7899   -1.7965    1.3770 N   0  0  0  0  0  0  0  0  0  0  0  0
   -1.5544    0.0641   -0.4631 N   0  0  0  0  0  0  0  0  0  0  0  0
    2.3039    1.2880   -1.7543 O   0  0  0  0  0  0  0  0  0  0  0  0
   -1.2730    2.0565   -2.4344 H   0  0  0  0  0  0  0  0  0  0  0  0
   -3.0361    2.2406   -2.3405 H   0  0  0  0  0  0  0  0  0  0  0  0
   -1.9926    3.6697   -2.3359 H   0  0  0  0  0  0  0  0  0  0  0  0
    0.1643    2.7842   -0.4884 H   0  0  0  0  0  0  0  0  0  0  0  0
   -0.5678    3.0195    1.1215 H   0  0  0  0  0  0  0  0  0  0  0  0
   -0.6940    4.2747   -0.1192 H   0  0  0  0  0  0  0  0  0  0  0  0
   -4.7021   -3.2967    0.7535 H   0  0  0  0  0  0  0  0  0  0  0  0
   -4.6382   -2.6451   -0.8857 H   0  0  0  0  0  0  0  0  0  0  0  0
   -3.3603   -3.7329   -0.3171 H   0  0  0  0  0  0  0  0  0  0  0  0
   -2.0861   -1.2370    2.2760 H   0  0  0  0  0  0  0  0  0  0  0  0
   -3.0749   -2.6768    2.4306 H   0  0  0  0  0  0  0  0  0  0  0  0
   -1.5872   -2.7460    1.4736 H   0  0  0  0  0  0  0  0  0  0  0  0
    6.5722    1.5655   -0.2135 H   0  0  0  0  0  0  0  0  0  0  0  0
    6.2790   -0.4045    1.2747 H   0  0  0  0  0  0  0  0  0  0  0  0
    4.7243    2.3620   -1.6216 H   0  0  0  0  0  0  0  0  0  0  0  0
    0.7770   -0.8849   -1.5599 H   0  0  0  0  0  0  0  0  0  0  0  0
    0.2690   -2.1554   -0.4557 H   0  0  0  0  0  0  0  0  0  0  0  0
   -0.3967   -0.4559    1.2492 H   0  0  0  0  0  0  0  0  0  0  0  0
    0.2731    0.8039    0.2685 H   0  0  0  0  0  0  0  0  0  0  0  0
    1.9906   -2.9311    1.5320 H   0  0  0  0  0  0  0  0  0  0  0  0
   -2.2766    1.1730    1.1995 H   0  0  0  0  0  0  0  0  0  0  0  0
   -3.3950    1.0235   -0.1367 H   0  0  0  0  0  0  0  0  0  0  0  0
   -1.7491   -1.9549   -1.0759 H   0  0  0  0  0  0  0  0  0  0  0  0
   -3.0512   -0.9120   -1.4910 H   0  0  0  0  0  0  0  0  0  0  0  0
   -2.8155    3.2431   -0.0709 H   0  0  0  0  0  0  0  0  0  0  0  0
   -3.9666   -0.9518    0.7945 H   0  0  0  0  0  0  0  0  0  0  0  0
    4.3636   -2.3089    2.0319 H   0  0  0  0  0  0  0  0  0  0  0  0
    2.6213    2.0284   -2.2954 H   0  0  0  0  0  0  0  0  0  0  0  0
  1 13  1  0
  2 13  1  0
  3 14  1  0
  4 14  1  0
  5  6  2  0
  5  7  1  0
  6 16  1  0
  7 17  2  0
  8  9  1  0
  8 15  1  0
  9 20  1  0
 10 15  2  0
 10 19  1  0
 11 13  1  0
 11 20  1  0
 12 14  1  0
 12 20  1  0
 15 18  1  0
 16 18  2  0
 16 19  1  0
 17 18  1  0
 17 21  1  0
  1 22  1  0
  1 23  1  0
  1 24  1  0
  2 25  1  0
  2 26  1  0
  2 27  1  0
  3 28  1  0
  3 29  1  0
  3 30  1  0
  4 31  1  0
  4 32  1  0
  4 33  1  0
  5 34  1  0
  6 35  1  0
  7 36  1  0
  8 37  1  0
  8 38  1  0
  9 39  1  0
  9 40  1  0
 10 41  1  0
 11 42  1  0
 11 43  1  0
 12 44  1  0
 12 45  1  0
 13 46  1  0
 14 47  1  0
 19 48  1  0
 21 49  1  0
M  END
