
     RDKit          3D

 50 51  0  0  0  0  0  0  0  0999 V2000
    4.9544   -0.6544   -0.3834 C   0  0  0  0  0  0  0  0  0  0  0  0
    4.4994   -0.5320    2.0615 C   0  0  0  0  0  0  0  0  0  0  0  0
    2.7947   -1.5386    0.5733 C   0  0  0  0  0  0  0  0  0  0  0  0
   -4.3064   -2.0917    1.0578 C   0  0  0  0  0  0  0  0  0  0  0  0
   -3.2495   -1.4187    1.9271 C   0  0  0  0  0  0  0  0  0  0  0  0
   -4.1551    2.4912   -0.5775 C   0  0  0  0  0  0  0  0  0  0  0  0
   -3.1270    3.2169   -1.1688 C   0  0  0  0  0  0  0  0  0  0  0  0
   -3.8634   -1.9019   -0.3950 C   0  0  0  0  0  0  0  0  0  0  0  0
   -2.0268   -1.2849    1.0304 C   0  0  0  0  0  0  0  0  0  0  0  0
   -3.9934    1.1266   -0.3130 C   0  0  0  0  0  0  0  0  0  0  0  0
   -1.9337    2.5794   -1.4938 C   0  0  0  0  0  0  0  0  0  0  0  0
    2.9806    1.5289   -0.7104 C   0  0  0  0  0  0  0  0  0  0  0  0
    0.4815    0.9352   -0.6853 C   0  0  0  0  0  0  0  0  0  0  0  0
   -2.5992   -1.0262   -0.3671 C   0  0  0  0  0  0  0  0  0  0  0  0
    1.7559    1.0745   -1.5269 C   0  0  0  0  0  0  0  0  0  0  0  0
   -2.8013    0.4578   -0.6365 C   0  0  0  0  0  0  0  0  0  0  0  0
   -1.7676    1.2197   -1.2096 C   0  0  0  0  0  0  0  0  0  0  0  0
    3.8503   -0.4239    0.6604 C   0  0  0  0  0  0  0  0  0  0  0  0
    3.2268    0.9193    0.6066 N   0  0  0  0  0  0  0  0  0  0  0  0
    2.0337   -0.1300   -2.2502 O   0  0  0  0  0  0  0  0  0  0  0  0
   -0.5974    0.6125   -1.5876 O   0  0  0  0  0  0  0  0  0  0  0  0
    5.7093    0.1400   -0.3439 H   0  0  0  0  0  0  0  0  0  0  0  0
    5.4715   -1.6040   -0.2051 H   0  0  0  0  0  0  0  0  0  0  0  0
    4.5557   -0.6955   -1.4016 H   0  0  0  0  0  0  0  0  0  0  0  0
    5.3017    0.2058    2.1921 H   0  0  0  0  0  0  0  0  0  0  0  0
    3.7629   -0.3691    2.8564 H   0  0  0  0  0  0  0  0  0  0  0  0
    4.9377   -1.5237    2.2215 H   0  0  0  0  0  0  0  0  0  0  0  0
    3.2425   -2.5177    0.7929 H   0  0  0  0  0  0  0  0  0  0  0  0
    2.3470   -1.6158   -0.4197 H   0  0  0  0  0  0  0  0  0  0  0  0
    1.9854   -1.3840    1.3001 H   0  0  0  0  0  0  0  0  0  0  0  0
   -4.3745   -3.1621    1.2878 H   0  0  0  0  0  0  0  0  0  0  0  0
   -5.2952   -1.6592    1.2433 H   0  0  0  0  0  0  0  0  0  0  0  0
   -3.0330   -1.9963    2.8286 H   0  0  0  0  0  0  0  0  0  0  0  0
   -3.5975   -0.4292    2.2484 H   0  0  0  0  0  0  0  0  0  0  0  0
   -5.0914    2.9842   -0.3262 H   0  0  0  0  0  0  0  0  0  0  0  0
   -3.2585    4.2735   -1.3860 H   0  0  0  0  0  0  0  0  0  0  0  0
   -3.6084   -2.8878   -0.8079 H   0  0  0  0  0  0  0  0  0  0  0  0
   -4.6639   -1.5021   -1.0243 H   0  0  0  0  0  0  0  0  0  0  0  0
   -1.4734   -2.2334    1.0267 H   0  0  0  0  0  0  0  0  0  0  0  0
   -1.3484   -0.5021    1.3883 H   0  0  0  0  0  0  0  0  0  0  0  0
   -4.8235    0.5964    0.1476 H   0  0  0  0  0  0  0  0  0  0  0  0
   -1.1379    3.1379   -1.9772 H   0  0  0  0  0  0  0  0  0  0  0  0
    3.8818    1.4975   -1.3319 H   0  0  0  0  0  0  0  0  0  0  0  0
    2.8159    2.5950   -0.4997 H   0  0  0  0  0  0  0  0  0  0  0  0
    0.5639    0.0984    0.0146 H   0  0  0  0  0  0  0  0  0  0  0  0
    0.2994    1.8572   -0.1168 H   0  0  0  0  0  0  0  0  0  0  0  0
   -1.9117   -1.4168   -1.1302 H   0  0  0  0  0  0  0  0  0  0  0  0
    1.5720    1.8323   -2.3001 H   0  0  0  0  0  0  0  0  0  0  0  0
    3.8406    1.5634    1.1084 H   0  0  0  0  0  0  0  0  0  0  0  0
    1.1737   -0.4426   -2.5837 H   0  0  0  0  0  0  0  0  0  0  0  0
  1 18  1  0
  2 18  1  0
  3 18  1  0
  4  5  1  0
  4  8  1  0
  5  9  1  0
  6  7  2  0
  6 10  1  0
  7 11  1  0
  8 14  1  0
  9 14  1  0
 10 16  2  0
 11 17  2  0
 12 15  1  0
 12 19  1  0
 13 15  1  0
 13 21  1  0
 14 16  1  0
 15 20  1  0
 16 17  1  0
 17 21  1  0
 18 19  1  0
  1 22  1  0
  1 23  1  0
  1 24  1  0
  2 25  1  0
  2 26  1  0
  2 27  1  0
  3 28  1  0
  3 29  1  0
  3 30  1  0
  4 31  1  0
  4 32  1  0
  5 33  1  0
  5 34  1  0
  6 35  1  0
  7 36  1  0
  8 37  1  0
  8 38  1  0
  9 39  1  0
  9 40  1  0
 10 41  1  0
 11 42  1  0
 12 43  1  0
 12 44  1  0
 13 45  1  0
 13 46  1  0
 14 47  1  0
 15 48  1  0
 19 49  1  0
 20 50  1  0
M  END
