
     RDKit          3D

 44 46  0  0  0  0  0  0  0  0999 V2000
   -3.7099   -3.8346   -1.5194 C   0  0  0  0  0  0  0  0  0  0  0  0
   -2.3115    1.9834    2.8079 C   0  0  0  0  0  0  0  0  0  0  0  0
    3.1366    1.1195    2.5152 C   0  0  0  0  0  0  0  0  0  0  0  0
    4.2692    1.8515    2.1397 C   0  0  0  0  0  0  0  0  0  0  0  0
    2.3958    0.4085    1.5673 C   0  0  0  0  0  0  0  0  0  0  0  0
   -1.6956   -0.1428   -1.8417 C   0  0  0  0  0  0  0  0  0  0  0  0
    5.6958    2.4564    0.0354 C   0  0  0  0  0  0  0  0  0  0  0  0
   -0.2394   -0.6334   -1.8251 C   0  0  0  0  0  0  0  0  0  0  0  0
    5.5078    2.0682   -1.2702 C   0  0  0  0  0  0  0  0  0  0  0  0
   -2.4687    0.3612    0.5030 C   0  0  0  0  0  0  0  0  0  0  0  0
   -3.8094   -2.0752    0.6888 C   0  0  0  0  0  0  0  0  0  0  0  0
    1.9389   -0.3826   -0.8019 C   0  0  0  0  0  0  0  0  0  0  0  0
    4.6491    1.8586    0.7868 C   0  0  0  0  0  0  0  0  0  0  0  0
   -2.4628   -0.5270   -0.5910 C   0  0  0  0  0  0  0  0  0  0  0  0
    2.7476    0.3930    0.2013 C   0  0  0  0  0  0  0  0  0  0  0  0
   -3.8118   -1.1788    1.7651 C   0  0  0  0  0  0  0  0  0  0  0  0
   -3.1295   -1.7605   -0.4894 C   0  0  0  0  0  0  0  0  0  0  0  0
   -3.1324    0.0434    1.6901 C   0  0  0  0  0  0  0  0  0  0  0  0
    3.8859    1.1384   -0.1271 C   0  0  0  0  0  0  0  0  0  0  0  0
   -4.7566   -1.6921    3.3358 Br  0  0  0  0  0  0  0  0  0  0  0  0
    0.5750    0.1423   -0.8820 N   0  0  0  0  0  0  0  0  0  0  0  0
   -3.0506   -2.5765   -1.5877 O   0  0  0  0  0  0  0  0  0  0  0  0
   -3.1738    0.8528    2.7945 O   0  0  0  0  0  0  0  0  0  0  0  0
    4.4144    1.2710   -1.3792 O   0  0  0  0  0  0  0  0  0  0  0  0
   -4.7898   -3.7077   -1.3919 H   0  0  0  0  0  0  0  0  0  0  0  0
   -3.2865   -4.4599   -0.7265 H   0  0  0  0  0  0  0  0  0  0  0  0
   -3.5462   -4.3488   -2.4714 H   0  0  0  0  0  0  0  0  0  0  0  0
   -1.2669    1.6910    2.6563 H   0  0  0  0  0  0  0  0  0  0  0  0
   -2.6278    2.7252    2.0677 H   0  0  0  0  0  0  0  0  0  0  0  0
   -2.3856    2.4473    3.7961 H   0  0  0  0  0  0  0  0  0  0  0  0
    2.8281    1.1037    3.5583 H   0  0  0  0  0  0  0  0  0  0  0  0
    4.8396    2.4011    2.8822 H   0  0  0  0  0  0  0  0  0  0  0  0
    1.5149   -0.1463    1.8911 H   0  0  0  0  0  0  0  0  0  0  0  0
   -2.2043   -0.5517   -2.7237 H   0  0  0  0  0  0  0  0  0  0  0  0
   -1.7308    0.9464   -1.9780 H   0  0  0  0  0  0  0  0  0  0  0  0
    6.4890    3.0910    0.4031 H   0  0  0  0  0  0  0  0  0  0  0  0
   -0.2101   -1.6991   -1.5669 H   0  0  0  0  0  0  0  0  0  0  0  0
    0.1766   -0.5223   -2.8338 H   0  0  0  0  0  0  0  0  0  0  0  0
    6.0364    2.2632   -2.1928 H   0  0  0  0  0  0  0  0  0  0  0  0
   -1.9284    1.2973    0.3971 H   0  0  0  0  0  0  0  0  0  0  0  0
   -4.3406   -3.0141    0.7988 H   0  0  0  0  0  0  0  0  0  0  0  0
    2.4172   -0.3397   -1.7874 H   0  0  0  0  0  0  0  0  0  0  0  0
    1.9279   -1.4341   -0.4892 H   0  0  0  0  0  0  0  0  0  0  0  0
    0.6230    1.1128   -1.1908 H   0  0  0  0  0  0  0  0  0  0  0  0
  1 22  1  0
  2 23  1  0
  3  4  2  0
  3  5  1  0
  4 13  1  0
  5 15  2  0
  6  8  1  0
  6 14  1  0
  7  9  2  0
  7 13  1  0
  8 21  1  0
  9 24  1  0
 10 14  2  0
 10 18  1  0
 11 16  1  0
 11 17  2  0
 12 15  1  0
 12 21  1  0
 13 19  2  0
 14 17  1  0
 15 19  1  0
 16 18  2  0
 16 20  1  0
 17 22  1  0
 18 23  1  0
 19 24  1  0
  1 25  1  0
  1 26  1  0
  1 27  1  0
  2 28  1  0
  2 29  1  0
  2 30  1  0
  3 31  1  0
  4 32  1  0
  5 33  1  0
  6 34  1  0
  6 35  1  0
  7 36  1  0
  8 37  1  0
  8 38  1  0
  9 39  1  0
 10 40  1  0
 11 41  1  0
 12 42  1  0
 12 43  1  0
 21 44  1  0
M  END
