
     RDKit          3D

 45 47  0  0  0  0  0  0  0  0999 V2000
   -1.0296   -1.6911   -1.8094 C   0  0  0  0  0  0  0  0  0  0  0  0
   -4.8594    3.7246    1.4789 C   0  0  0  0  0  0  0  0  0  0  0  0
    3.5188   -3.3827   -0.9058 C   0  0  0  0  0  0  0  0  0  0  0  0
    4.3371   -2.4788   -1.5866 C   0  0  0  0  0  0  0  0  0  0  0  0
    2.6138   -2.9362    0.0580 C   0  0  0  0  0  0  0  0  0  0  0  0
   -1.4428   -0.0945    2.0783 C   0  0  0  0  0  0  0  0  0  0  0  0
    4.9044    0.0582   -1.7647 C   0  0  0  0  0  0  0  0  0  0  0  0
   -0.0535    0.5515    2.2413 C   0  0  0  0  0  0  0  0  0  0  0  0
    4.3858    1.1425   -1.0949 C   0  0  0  0  0  0  0  0  0  0  0  0
   -3.1079    1.5335    1.1153 C   0  0  0  0  0  0  0  0  0  0  0  0
   -2.8468    0.4455   -1.4400 C   0  0  0  0  0  0  0  0  0  0  0  0
    1.5109   -1.1459    1.4674 C   0  0  0  0  0  0  0  0  0  0  0  0
    4.2396   -1.1074   -1.2888 C   0  0  0  0  0  0  0  0  0  0  0  0
   -2.2332    0.4479    0.9015 C   0  0  0  0  0  0  0  0  0  0  0  0
    2.4729   -1.5708    0.3770 C   0  0  0  0  0  0  0  0  0  0  0  0
   -3.7189    1.5167   -1.2095 C   0  0  0  0  0  0  0  0  0  0  0  0
   -2.0997   -0.0918   -0.3907 C   0  0  0  0  0  0  0  0  0  0  0  0
   -3.8577    2.0757    0.0679 C   0  0  0  0  0  0  0  0  0  0  0  0
    3.3221   -0.6937   -0.3245 C   0  0  0  0  0  0  0  0  0  0  0  0
   -4.7006    2.1877   -2.6956 Br  0  0  0  0  0  0  0  0  0  0  0  0
    0.9371    0.1850    1.2193 N   0  0  0  0  0  0  0  0  0  0  0  0
    3.4329    0.6770   -0.2304 N   0  0  0  0  0  0  0  0  0  0  0  0
   -1.2116   -1.1264   -0.5159 O   0  0  0  0  0  0  0  0  0  0  0  0
   -4.7311    3.1230    0.1983 O   0  0  0  0  0  0  0  0  0  0  0  0
   -1.9618   -2.1304   -2.1813 H   0  0  0  0  0  0  0  0  0  0  0  0
   -0.6315   -0.9499   -2.5096 H   0  0  0  0  0  0  0  0  0  0  0  0
   -0.2930   -2.4950   -1.7222 H   0  0  0  0  0  0  0  0  0  0  0  0
   -5.2502    3.0108    2.2111 H   0  0  0  0  0  0  0  0  0  0  0  0
   -5.5823    4.5409    1.3939 H   0  0  0  0  0  0  0  0  0  0  0  0
   -3.9080    4.1543    1.8115 H   0  0  0  0  0  0  0  0  0  0  0  0
    3.5958   -4.4448   -1.1236 H   0  0  0  0  0  0  0  0  0  0  0  0
    5.0439   -2.8327   -2.3316 H   0  0  0  0  0  0  0  0  0  0  0  0
    2.0028   -3.6727    0.5766 H   0  0  0  0  0  0  0  0  0  0  0  0
   -2.0159    0.0929    2.9963 H   0  0  0  0  0  0  0  0  0  0  0  0
   -1.3734   -1.1860    2.0160 H   0  0  0  0  0  0  0  0  0  0  0  0
    5.6802    0.0954   -2.5176 H   0  0  0  0  0  0  0  0  0  0  0  0
   -0.1649    1.6426    2.2116 H   0  0  0  0  0  0  0  0  0  0  0  0
    0.3413    0.3180    3.2381 H   0  0  0  0  0  0  0  0  0  0  0  0
    4.6086    2.1984   -1.1587 H   0  0  0  0  0  0  0  0  0  0  0  0
   -3.1848    1.9368    2.1202 H   0  0  0  0  0  0  0  0  0  0  0  0
   -2.7671    0.0514   -2.4479 H   0  0  0  0  0  0  0  0  0  0  0  0
    2.0594   -1.1476    2.4173 H   0  0  0  0  0  0  0  0  0  0  0  0
    0.7115   -1.8929    1.5347 H   0  0  0  0  0  0  0  0  0  0  0  0
    0.4563    0.1306    0.3159 H   0  0  0  0  0  0  0  0  0  0  0  0
    2.8507    1.2305    0.3874 H   0  0  0  0  0  0  0  0  0  0  0  0
  1 23  1  0
  2 24  1  0
  3  4  2  0
  3  5  1  0
  4 13  1  0
  5 15  2  0
  6  8  1  0
  6 14  1  0
  7  9  2  0
  7 13  1  0
  8 21  1  0
  9 22  1  0
 10 14  2  0
 10 18  1  0
 11 16  1  0
 11 17  2  0
 12 15  1  0
 12 21  1  0
 13 19  2  0
 14 17  1  0
 15 19  1  0
 16 18  2  0
 16 20  1  0
 17 23  1  0
 18 24  1  0
 19 22  1  0
  1 25  1  0
  1 26  1  0
  1 27  1  0
  2 28  1  0
  2 29  1  0
  2 30  1  0
  3 31  1  0
  4 32  1  0
  5 33  1  0
  6 34  1  0
  6 35  1  0
  7 36  1  0
  8 37  1  0
  8 38  1  0
  9 39  1  0
 10 40  1  0
 11 41  1  0
 12 42  1  0
 12 43  1  0
 21 44  1  0
 22 45  1  0
M  END
