
     RDKit          3D

 46 49  0  0  0  0  0  0  0  0999 V2000
    5.3304    0.2242    0.8777 C   0  0  0  0  0  0  0  0  0  0  0  0
    4.6915    0.9444   -1.4210 C   0  0  0  0  0  0  0  0  0  0  0  0
    4.3739   -1.4664   -0.6840 C   0  0  0  0  0  0  0  0  0  0  0  0
   -5.4382    2.1551    1.0965 C   0  0  0  0  0  0  0  0  0  0  0  0
   -4.4818    3.1335    1.3292 C   0  0  0  0  0  0  0  0  0  0  0  0
   -1.3930   -2.8769   -1.5261 C   0  0  0  0  0  0  0  0  0  0  0  0
   -5.0355    0.8420    0.8563 C   0  0  0  0  0  0  0  0  0  0  0  0
   -3.1265    2.7997    1.3113 C   0  0  0  0  0  0  0  0  0  0  0  0
   -0.4750   -1.6711   -1.4127 C   0  0  0  0  0  0  0  0  0  0  0  0
   -2.1201   -2.8316   -0.1993 C   0  0  0  0  0  0  0  0  0  0  0  0
   -0.3685    1.9042    1.7308 C   0  0  0  0  0  0  0  0  0  0  0  0
   -3.6715    0.4868    0.8252 C   0  0  0  0  0  0  0  0  0  0  0  0
   -2.7079    1.4777    1.0462 C   0  0  0  0  0  0  0  0  0  0  0  0
   -1.3413   -0.6083   -0.7227 C   0  0  0  0  0  0  0  0  0  0  0  0
    0.7206    0.6927    0.3402 C   0  0  0  0  0  0  0  0  0  0  0  0
   -0.6251    0.3403    0.1780 C   0  0  0  0  0  0  0  0  0  0  0  0
   -3.3977   -0.9677    0.7203 C   0  0  0  0  0  0  0  0  0  0  0  0
    1.8970    0.2724   -0.4316 C   0  0  0  0  0  0  0  0  0  0  0  0
    4.3264    0.0071   -0.2648 C   0  0  0  0  0  0  0  0  0  0  0  0
    0.8511    1.6134    1.3644 N   0  0  0  0  0  0  0  0  0  0  0  0
   -2.2690   -1.4093    0.0710 N   0  0  0  0  0  0  0  0  0  0  0  0
   -1.3143    1.2206    1.0051 N   0  0  0  0  0  0  0  0  0  0  0  0
   -4.2163   -1.7453    1.2102 O   0  0  0  0  0  0  0  0  0  0  0  0
    1.8459   -0.0770   -1.6039 O   0  0  0  0  0  0  0  0  0  0  0  0
    3.0402    0.3504    0.3057 O   0  0  0  0  0  0  0  0  0  0  0  0
    5.0804   -0.4041    1.7407 H   0  0  0  0  0  0  0  0  0  0  0  0
    5.2995    1.2613    1.2318 H   0  0  0  0  0  0  0  0  0  0  0  0
    6.3554   -0.0053    0.5683 H   0  0  0  0  0  0  0  0  0  0  0  0
    5.7277    0.7947   -1.7432 H   0  0  0  0  0  0  0  0  0  0  0  0
    4.0519    0.7858   -2.2944 H   0  0  0  0  0  0  0  0  0  0  0  0
    4.5661    1.9924   -1.1262 H   0  0  0  0  0  0  0  0  0  0  0  0
    5.3897   -1.7697   -0.9596 H   0  0  0  0  0  0  0  0  0  0  0  0
    3.7281   -1.6687   -1.5438 H   0  0  0  0  0  0  0  0  0  0  0  0
    4.0254   -2.1132    0.1290 H   0  0  0  0  0  0  0  0  0  0  0  0
   -6.4963    2.4045    1.1179 H   0  0  0  0  0  0  0  0  0  0  0  0
   -4.7887    4.1592    1.5213 H   0  0  0  0  0  0  0  0  0  0  0  0
   -2.0970   -2.7358   -2.3549 H   0  0  0  0  0  0  0  0  0  0  0  0
   -0.8536   -3.8147   -1.6832 H   0  0  0  0  0  0  0  0  0  0  0  0
   -5.7995    0.0774    0.7145 H   0  0  0  0  0  0  0  0  0  0  0  0
   -2.4120    3.6063    1.4664 H   0  0  0  0  0  0  0  0  0  0  0  0
   -0.1185   -1.3465   -2.3943 H   0  0  0  0  0  0  0  0  0  0  0  0
    0.3854   -1.9633   -0.7991 H   0  0  0  0  0  0  0  0  0  0  0  0
   -1.5108   -3.2580    0.6054 H   0  0  0  0  0  0  0  0  0  0  0  0
   -3.0797   -3.3555   -0.2367 H   0  0  0  0  0  0  0  0  0  0  0  0
   -0.6240    2.5995    2.5199 H   0  0  0  0  0  0  0  0  0  0  0  0
   -1.9247   -0.0570   -1.4711 H   0  0  0  0  0  0  0  0  0  0  0  0
  1 19  1  0
  2 19  1  0
  3 19  1  0
  4  5  2  0
  4  7  1  0
  5  8  1  0
  6  9  1  0
  6 10  1  0
  7 12  2  0
  8 13  2  0
  9 14  1  0
 10 21  1  0
 11 20  2  0
 11 22  1  0
 12 13  1  0
 12 17  1  0
 13 22  1  0
 14 16  1  0
 14 21  1  0
 15 16  2  0
 15 18  1  0
 15 20  1  0
 16 22  1  0
 17 21  1  0
 17 23  2  0
 18 24  2  0
 18 25  1  0
 19 25  1  0
  1 26  1  0
  1 27  1  0
  1 28  1  0
  2 29  1  0
  2 30  1  0
  2 31  1  0
  3 32  1  0
  3 33  1  0
  3 34  1  0
  4 35  1  0
  5 36  1  0
  6 37  1  0
  6 38  1  0
  7 39  1  0
  8 40  1  0
  9 41  1  0
  9 42  1  0
 10 43  1  0
 10 44  1  0
 11 45  1  0
 14 46  1  0
M  END
