
     RDKit          3D

 45 49  0  0  0  0  0  0  0  0999 V2000
    5.7531   -0.5995   -0.5097 C   0  0  0  0  0  0  0  0  0  0  0  0
   -4.3155    1.1917   -0.3112 C   0  0  0  0  0  0  0  0  0  0  0  0
    1.0984    1.5632    2.3120 C   0  0  0  0  0  0  0  0  0  0  0  0
   -1.4818   -1.9561    0.9100 C   0  0  0  0  0  0  0  0  0  0  0  0
   -0.4682   -2.7219    0.4804 C   0  0  0  0  0  0  0  0  0  0  0  0
    2.4012    1.4802    1.7766 C   0  0  0  0  0  0  0  0  0  0  0  0
   -1.3075    1.0684   -1.4819 C   0  0  0  0  0  0  0  0  0  0  0  0
   -2.0990    2.1085   -0.6708 C   0  0  0  0  0  0  0  0  0  0  0  0
   -1.3984    0.9865    2.1335 C   0  0  0  0  0  0  0  0  0  0  0  0
    4.4234   -0.5397    0.1820 C   0  0  0  0  0  0  0  0  0  0  0  0
    0.0086    1.0587    1.5974 C   0  0  0  0  0  0  0  0  0  0  0  0
   -1.8852   -0.6924    0.1957 C   0  0  0  0  0  0  0  0  0  0  0  0
   -2.4621    0.4340    1.1148 C   0  0  0  0  0  0  0  0  0  0  0  0
    0.3786   -2.4175   -0.7253 C   0  0  0  0  0  0  0  0  0  0  0  0
    2.6199    0.8499    0.5455 C   0  0  0  0  0  0  0  0  0  0  0  0
    0.2689    0.5157    0.3513 C   0  0  0  0  0  0  0  0  0  0  0  0
    1.5394    0.3679   -0.1582 C   0  0  0  0  0  0  0  0  0  0  0  0
    0.2231   -0.9956   -1.3482 C   0  0  0  0  0  0  0  0  0  0  0  0
   -0.7359   -0.0553   -0.5909 C   0  0  0  0  0  0  0  0  0  0  0  0
   -3.0413    1.5484    0.3114 N   0  0  0  0  0  0  0  0  0  0  0  0
    3.9225   -1.4799    0.7859 O   0  0  0  0  0  0  0  0  0  0  0  0
    0.0510   -3.4031   -1.7141 O   0  0  0  0  0  0  0  0  0  0  0  0
    3.9096    0.7440    0.0440 O   0  0  0  0  0  0  0  0  0  0  0  0
    1.5465   -0.3317   -1.3392 O   0  0  0  0  0  0  0  0  0  0  0  0
    6.1375   -1.6226   -0.4673 H   0  0  0  0  0  0  0  0  0  0  0  0
    5.6381   -0.3187   -1.5598 H   0  0  0  0  0  0  0  0  0  0  0  0
    6.4616    0.0642   -0.0082 H   0  0  0  0  0  0  0  0  0  0  0  0
   -5.0194    0.8094    0.4361 H   0  0  0  0  0  0  0  0  0  0  0  0
   -4.7848    2.0808   -0.7474 H   0  0  0  0  0  0  0  0  0  0  0  0
   -4.2137    0.4440   -1.1037 H   0  0  0  0  0  0  0  0  0  0  0  0
    0.9521    2.0061    3.2945 H   0  0  0  0  0  0  0  0  0  0  0  0
   -2.0603   -2.2681    1.7765 H   0  0  0  0  0  0  0  0  0  0  0  0
   -0.2206   -3.6345    1.0187 H   0  0  0  0  0  0  0  0  0  0  0  0
    3.2412    1.8729    2.3424 H   0  0  0  0  0  0  0  0  0  0  0  0
   -0.5104    1.5859   -2.0314 H   0  0  0  0  0  0  0  0  0  0  0  0
   -1.9671    0.6245   -2.2390 H   0  0  0  0  0  0  0  0  0  0  0  0
   -1.3962    2.7611   -0.1385 H   0  0  0  0  0  0  0  0  0  0  0  0
   -2.6205    2.7839   -1.3613 H   0  0  0  0  0  0  0  0  0  0  0  0
   -1.7066    1.9723    2.5034 H   0  0  0  0  0  0  0  0  0  0  0  0
   -1.3829    0.3123    3.0001 H   0  0  0  0  0  0  0  0  0  0  0  0
   -2.6696   -1.0132   -0.5032 H   0  0  0  0  0  0  0  0  0  0  0  0
   -3.2734    0.0193    1.7291 H   0  0  0  0  0  0  0  0  0  0  0  0
    1.4280   -2.5894   -0.4604 H   0  0  0  0  0  0  0  0  0  0  0  0
   -0.0702   -1.0843   -2.4017 H   0  0  0  0  0  0  0  0  0  0  0  0
   -0.9123   -3.5303   -1.6915 H   0  0  0  0  0  0  0  0  0  0  0  0
  1 10  1  0
  2 20  1  0
  3  6  2  0
  3 11  1  0
  4  5  2  0
  4 12  1  0
  5 14  1  0
  6 15  1  0
  7  8  1  0
  7 19  1  0
  8 20  1  0
  9 11  1  0
  9 13  1  0
 10 21  2  0
 10 23  1  0
 11 16  2  0
 12 13  1  0
 12 19  1  0
 13 20  1  0
 14 18  1  0
 14 22  1  0
 15 17  2  0
 15 23  1  0
 16 17  1  0
 16 19  1  0
 17 24  1  0
 18 19  1  0
 18 24  1  0
  1 25  1  0
  1 26  1  0
  1 27  1  0
  2 28  1  0
  2 29  1  0
  2 30  1  0
  3 31  1  0
  4 32  1  0
  5 33  1  0
  6 34  1  0
  7 35  1  0
  7 36  1  0
  8 37  1  0
  8 38  1  0
  9 39  1  0
  9 40  1  0
 12 41  1  0
 13 42  1  0
 14 43  1  0
 18 44  1  0
 22 45  1  0
M  END
