
     RDKit          3D

 45 47  0  0  0  0  0  0  0  0999 V2000
    7.9677   -0.2757    0.5326 C   0  0  0  0  0  0  0  0  0  0  0  0
   -6.8482   -1.9574    0.5504 C   0  0  0  0  0  0  0  0  0  0  0  0
    4.4927    1.4055   -1.1933 C   0  0  0  0  0  0  0  0  0  0  0  0
    3.2684    0.7839   -0.9483 C   0  0  0  0  0  0  0  0  0  0  0  0
    5.6662    0.8912   -0.6369 C   0  0  0  0  0  0  0  0  0  0  0  0
   -5.9837    1.4160   -0.4667 C   0  0  0  0  0  0  0  0  0  0  0  0
   -4.8963    2.2649   -0.7022 C   0  0  0  0  0  0  0  0  0  0  0  0
   -1.2466   -1.0380    0.3199 C   0  0  0  0  0  0  0  0  0  0  0  0
   -0.1867   -0.8816    1.4279 C   0  0  0  0  0  0  0  0  0  0  0  0
    4.3868   -0.8629    0.4152 C   0  0  0  0  0  0  0  0  0  0  0  0
   -4.5096   -0.4122    0.1181 C   0  0  0  0  0  0  0  0  0  0  0  0
    1.8752   -1.0312    0.1258 C   0  0  0  0  0  0  0  0  0  0  0  0
   -1.3879    1.4258   -0.4225 C   0  0  0  0  0  0  0  0  0  0  0  0
    3.2027   -0.3624   -0.1452 C   0  0  0  0  0  0  0  0  0  0  0  0
   -1.9654    0.2270   -0.0494 C   0  0  0  0  0  0  0  0  0  0  0  0
    5.6187   -0.2463    0.1699 C   0  0  0  0  0  0  0  0  0  0  0  0
   -5.8043    0.0927   -0.0625 C   0  0  0  0  0  0  0  0  0  0  0  0
   -3.3884    0.4197   -0.1186 C   0  0  0  0  0  0  0  0  0  0  0  0
   -3.6137    1.7356   -0.5229 C   0  0  0  0  0  0  0  0  0  0  0  0
    1.0670   -0.2205    1.0364 N   0  0  0  0  0  0  0  0  0  0  0  0
   -2.3823    2.3249   -0.6894 N   0  0  0  0  0  0  0  0  0  0  0  0
    6.6879   -0.8488    0.7747 O   0  0  0  0  0  0  0  0  0  0  0  0
   -6.9697   -0.6077    0.1183 O   0  0  0  0  0  0  0  0  0  0  0  0
    8.7112   -0.8783    1.0640 H   0  0  0  0  0  0  0  0  0  0  0  0
    8.0209    0.7445    0.9248 H   0  0  0  0  0  0  0  0  0  0  0  0
    8.2174   -0.3038   -0.5346 H   0  0  0  0  0  0  0  0  0  0  0  0
   -6.2866   -2.5585   -0.1754 H   0  0  0  0  0  0  0  0  0  0  0  0
   -7.8581   -2.3789    0.6184 H   0  0  0  0  0  0  0  0  0  0  0  0
   -6.3958   -2.0099    1.5491 H   0  0  0  0  0  0  0  0  0  0  0  0
    4.5319    2.2971   -1.8155 H   0  0  0  0  0  0  0  0  0  0  0  0
    2.3583    1.1977   -1.3779 H   0  0  0  0  0  0  0  0  0  0  0  0
    6.5974    1.4047   -0.8507 H   0  0  0  0  0  0  0  0  0  0  0  0
   -6.9938    1.7976   -0.6034 H   0  0  0  0  0  0  0  0  0  0  0  0
   -5.0509    3.2913   -1.0169 H   0  0  0  0  0  0  0  0  0  0  0  0
   -0.8141   -1.4820   -0.5843 H   0  0  0  0  0  0  0  0  0  0  0  0
   -1.9827   -1.7682    0.6809 H   0  0  0  0  0  0  0  0  0  0  0  0
    0.0465   -1.8714    1.8397 H   0  0  0  0  0  0  0  0  0  0  0  0
   -0.6239   -0.3050    2.2531 H   0  0  0  0  0  0  0  0  0  0  0  0
    4.3589   -1.7437    1.0523 H   0  0  0  0  0  0  0  0  0  0  0  0
   -4.3363   -1.4341    0.4303 H   0  0  0  0  0  0  0  0  0  0  0  0
    1.3681   -1.1737   -0.8359 H   0  0  0  0  0  0  0  0  0  0  0  0
    2.0475   -2.0287    0.5490 H   0  0  0  0  0  0  0  0  0  0  0  0
   -0.3471    1.7130   -0.5095 H   0  0  0  0  0  0  0  0  0  0  0  0
    1.6189   -0.0346    1.8745 H   0  0  0  0  0  0  0  0  0  0  0  0
   -2.2381    3.2823   -0.9791 H   0  0  0  0  0  0  0  0  0  0  0  0
  1 22  1  0
  2 23  1  0
  3  4  2  0
  3  5  1  0
  4 14  1  0
  5 16  2  0
  6  7  2  0
  6 17  1  0
  7 19  1  0
  8  9  1  0
  8 15  1  0
  9 20  1  0
 10 14  2  0
 10 16  1  0
 11 17  2  0
 11 18  1  0
 12 14  1  0
 12 20  1  0
 13 15  2  0
 13 21  1  0
 15 18  1  0
 16 22  1  0
 17 23  1  0
 18 19  2  0
 19 21  1  0
  1 24  1  0
  1 25  1  0
  1 26  1  0
  2 27  1  0
  2 28  1  0
  2 29  1  0
  3 30  1  0
  4 31  1  0
  5 32  1  0
  6 33  1  0
  7 34  1  0
  8 35  1  0
  8 36  1  0
  9 37  1  0
  9 38  1  0
 10 39  1  0
 11 40  1  0
 12 41  1  0
 12 42  1  0
 13 43  1  0
 20 44  1  0
 21 45  1  0
M  END
