
     RDKit          3D

 47 49  0  0  0  0  0  0  0  0999 V2000
   -6.0939   -1.3427    0.7664 C   0  0  0  0  0  0  0  0  0  0  0  0
   -5.2111    2.7483    0.7165 C   0  0  0  0  0  0  0  0  0  0  0  0
   -1.6050   -3.5977   -0.4395 C   0  0  0  0  0  0  0  0  0  0  0  0
    5.2813    2.6265   -0.9400 C   0  0  0  0  0  0  0  0  0  0  0  0
    3.9813    2.1031   -0.8178 C   0  0  0  0  0  0  0  0  0  0  0  0
    6.3932    1.8251   -0.6790 C   0  0  0  0  0  0  0  0  0  0  0  0
   -0.7028    0.5145   -0.4474 C   0  0  0  0  0  0  0  0  0  0  0  0
    0.2108    0.4186    0.7831 C   0  0  0  0  0  0  0  0  0  0  0  0
   -3.6898   -1.7865    0.1659 C   0  0  0  0  0  0  0  0  0  0  0  0
   -3.1158    0.9384    0.1436 C   0  0  0  0  0  0  0  0  0  0  0  0
    2.3733    0.2027   -0.3167 C   0  0  0  0  0  0  0  0  0  0  0  0
    6.3284   -1.5497    0.2950 C   0  0  0  0  0  0  0  0  0  0  0  0
   -4.7055   -0.8565    0.4500 C   0  0  0  0  0  0  0  0  0  0  0  0
   -2.0997    0.0089   -0.1472 C   0  0  0  0  0  0  0  0  0  0  0  0
    3.7650    0.7690   -0.4251 C   0  0  0  0  0  0  0  0  0  0  0  0
    6.1657    0.5185   -0.3037 C   0  0  0  0  0  0  0  0  0  0  0  0
   -4.4143    0.5167    0.4394 C   0  0  0  0  0  0  0  0  0  0  0  0
   -2.3907   -1.3654   -0.1307 C   0  0  0  0  0  0  0  0  0  0  0  0
    4.8933    0.0025   -0.1819 C   0  0  0  0  0  0  0  0  0  0  0  0
    1.5374    1.0159    0.5760 N   0  0  0  0  0  0  0  0  0  0  0  0
   -5.4626    1.3492    0.7326 O   0  0  0  0  0  0  0  0  0  0  0  0
   -1.3414   -2.2011   -0.4104 O   0  0  0  0  0  0  0  0  0  0  0  0
    7.1317   -0.3963   -0.0190 O   0  0  0  0  0  0  0  0  0  0  0  0
    4.9111   -1.3075    0.1934 O   0  0  0  0  0  0  0  0  0  0  0  0
   -6.8105   -0.9412    0.0425 H   0  0  0  0  0  0  0  0  0  0  0  0
   -6.1582   -2.4351    0.7238 H   0  0  0  0  0  0  0  0  0  0  0  0
   -6.3828   -1.0329    1.7760 H   0  0  0  0  0  0  0  0  0  0  0  0
   -4.4738    3.0256    1.4771 H   0  0  0  0  0  0  0  0  0  0  0  0
   -6.1478    3.2585    0.9609 H   0  0  0  0  0  0  0  0  0  0  0  0
   -4.9006    3.0828   -0.2788 H   0  0  0  0  0  0  0  0  0  0  0  0
   -0.6710   -4.1080   -0.6938 H   0  0  0  0  0  0  0  0  0  0  0  0
   -1.9237   -3.9593    0.5435 H   0  0  0  0  0  0  0  0  0  0  0  0
   -2.3400   -3.8457   -1.2123 H   0  0  0  0  0  0  0  0  0  0  0  0
    5.4174    3.6626   -1.2404 H   0  0  0  0  0  0  0  0  0  0  0  0
    3.1275    2.7466   -1.0264 H   0  0  0  0  0  0  0  0  0  0  0  0
    7.4010    2.2134   -0.7695 H   0  0  0  0  0  0  0  0  0  0  0  0
   -0.7563    1.5570   -0.7880 H   0  0  0  0  0  0  0  0  0  0  0  0
   -0.2945   -0.0500   -1.2939 H   0  0  0  0  0  0  0  0  0  0  0  0
   -0.2625    0.9633    1.6100 H   0  0  0  0  0  0  0  0  0  0  0  0
    0.3099   -0.6189    1.1253 H   0  0  0  0  0  0  0  0  0  0  0  0
   -3.9433   -2.8415    0.1858 H   0  0  0  0  0  0  0  0  0  0  0  0
   -2.8601    1.9934    0.1330 H   0  0  0  0  0  0  0  0  0  0  0  0
    2.4142   -0.8280    0.0545 H   0  0  0  0  0  0  0  0  0  0  0  0
    1.9516    0.1719   -1.3277 H   0  0  0  0  0  0  0  0  0  0  0  0
    6.5952   -2.3609   -0.3921 H   0  0  0  0  0  0  0  0  0  0  0  0
    6.5567   -1.8683    1.3187 H   0  0  0  0  0  0  0  0  0  0  0  0
    2.0117    1.0598    1.4788 H   0  0  0  0  0  0  0  0  0  0  0  0
  1 13  1  0
  2 21  1  0
  3 22  1  0
  4  5  2  0
  4  6  1  0
  5 15  1  0
  6 16  2  0
  7  8  1  0
  7 14  1  0
  8 20  1  0
  9 13  2  0
  9 18  1  0
 10 14  1  0
 10 17  2  0
 11 15  1  0
 11 20  1  0
 12 23  1  0
 12 24  1  0
 13 17  1  0
 14 18  2  0
 15 19  2  0
 16 19  1  0
 16 23  1  0
 17 21  1  0
 18 22  1  0
 19 24  1  0
  1 25  1  0
  1 26  1  0
  1 27  1  0
  2 28  1  0
  2 29  1  0
  2 30  1  0
  3 31  1  0
  3 32  1  0
  3 33  1  0
  4 34  1  0
  5 35  1  0
  6 36  1  0
  7 37  1  0
  7 38  1  0
  8 39  1  0
  8 40  1  0
  9 41  1  0
 10 42  1  0
 11 43  1  0
 11 44  1  0
 12 45  1  0
 12 46  1  0
 20 47  1  0
M  END
