
     RDKit          3D

 48 49  0  0  0  0  0  0  0  0999 V2000
   -0.9392   -0.2311   -2.3248 C   0  0  0  0  0  0  0  0  0  0  0  0
    4.9430    2.8416    0.6855 C   0  0  0  0  0  0  0  0  0  0  0  0
   -4.5634   -2.6890   -1.6924 C   0  0  0  0  0  0  0  0  0  0  0  0
   -2.9398    2.6509    3.1708 C   0  0  0  0  0  0  0  0  0  0  0  0
    5.0542   -2.0637   -0.4720 C   0  0  0  0  0  0  0  0  0  0  0  0
    6.0480   -1.1100   -0.2853 C   0  0  0  0  0  0  0  0  0  0  0  0
    3.7158   -1.7002   -0.3417 C   0  0  0  0  0  0  0  0  0  0  0  0
    5.7055    0.2061    0.0350 C   0  0  0  0  0  0  0  0  0  0  0  0
   -1.0981   -1.0323    0.0814 C   0  0  0  0  0  0  0  0  0  0  0  0
   -2.6258    0.5400    1.3201 C   0  0  0  0  0  0  0  0  0  0  0  0
   -4.8975   -0.5691    0.1482 C   0  0  0  0  0  0  0  0  0  0  0  0
    1.8809   -0.0334    0.1269 C   0  0  0  0  0  0  0  0  0  0  0  0
   -0.3348   -0.1290   -0.9173 C   0  0  0  0  0  0  0  0  0  0  0  0
    3.3502   -0.3752   -0.0336 C   0  0  0  0  0  0  0  0  0  0  0  0
   -2.4934   -0.5265    0.4066 C   0  0  0  0  0  0  0  0  0  0  0  0
   -5.0129    0.4910    1.0583 C   0  0  0  0  0  0  0  0  0  0  0  0
    4.3629    0.5831    0.1685 C   0  0  0  0  0  0  0  0  0  0  0  0
   -3.6417   -1.0820   -0.1833 C   0  0  0  0  0  0  0  0  0  0  0  0
   -3.8795    1.0581    1.6558 C   0  0  0  0  0  0  0  0  0  0  0  0
   -6.9536    1.1868    1.4825 I   0  0  0  0  0  0  0  0  0  0  0  0
    1.0872   -0.5128   -1.0154 N   0  0  0  0  0  0  0  0  0  0  0  0
    3.9445    1.8474    0.4945 O   0  0  0  0  0  0  0  0  0  0  0  0
   -3.4279   -2.1063   -1.0662 O   0  0  0  0  0  0  0  0  0  0  0  0
   -4.0792    2.0912    2.5318 O   0  0  0  0  0  0  0  0  0  0  0  0
   -0.3802    0.3847   -3.0391 H   0  0  0  0  0  0  0  0  0  0  0  0
   -1.9727    0.1288   -2.3393 H   0  0  0  0  0  0  0  0  0  0  0  0
   -0.9318   -1.2637   -2.6916 H   0  0  0  0  0  0  0  0  0  0  0  0
    5.5208    3.0027   -0.2305 H   0  0  0  0  0  0  0  0  0  0  0  0
    5.5948    2.5896    1.5285 H   0  0  0  0  0  0  0  0  0  0  0  0
    4.4362    3.7808    0.9274 H   0  0  0  0  0  0  0  0  0  0  0  0
   -5.0977   -1.9542   -2.3034 H   0  0  0  0  0  0  0  0  0  0  0  0
   -5.2275   -3.1508   -0.9544 H   0  0  0  0  0  0  0  0  0  0  0  0
   -4.2074   -3.4796   -2.3598 H   0  0  0  0  0  0  0  0  0  0  0  0
   -3.2880    3.4432    3.8404 H   0  0  0  0  0  0  0  0  0  0  0  0
   -2.2627    3.1066    2.4409 H   0  0  0  0  0  0  0  0  0  0  0  0
   -2.4219    1.9040    3.7812 H   0  0  0  0  0  0  0  0  0  0  0  0
    5.3171   -3.0891   -0.7172 H   0  0  0  0  0  0  0  0  0  0  0  0
    7.0935   -1.3897   -0.3854 H   0  0  0  0  0  0  0  0  0  0  0  0
    2.9430   -2.4538   -0.4856 H   0  0  0  0  0  0  0  0  0  0  0  0
    6.5155    0.9134    0.1776 H   0  0  0  0  0  0  0  0  0  0  0  0
   -0.5581   -1.0969    1.0343 H   0  0  0  0  0  0  0  0  0  0  0  0
   -1.1310   -2.0649   -0.2882 H   0  0  0  0  0  0  0  0  0  0  0  0
   -1.7185    0.9468    1.7572 H   0  0  0  0  0  0  0  0  0  0  0  0
   -5.8003   -0.9788   -0.2915 H   0  0  0  0  0  0  0  0  0  0  0  0
    1.7429    1.0486    0.2223 H   0  0  0  0  0  0  0  0  0  0  0  0
    1.5429   -0.4912    1.0628 H   0  0  0  0  0  0  0  0  0  0  0  0
   -0.4068    0.9229   -0.6118 H   0  0  0  0  0  0  0  0  0  0  0  0
    1.4928   -0.0951   -1.8538 H   0  0  0  0  0  0  0  0  0  0  0  0
  1 13  1  0
  2 22  1  0
  3 23  1  0
  4 24  1  0
  5  6  2  0
  5  7  1  0
  6  8  1  0
  7 14  2  0
  8 17  2  0
  9 13  1  0
  9 15  1  0
 10 15  2  0
 10 19  1  0
 11 16  1  0
 11 18  2  0
 12 14  1  0
 12 21  1  0
 13 21  1  0
 14 17  1  0
 15 18  1  0
 16 19  2  0
 16 20  1  0
 17 22  1  0
 18 23  1  0
 19 24  1  0
  1 25  1  0
  1 26  1  0
  1 27  1  0
  2 28  1  0
  2 29  1  0
  2 30  1  0
  3 31  1  0
  3 32  1  0
  3 33  1  0
  4 34  1  0
  4 35  1  0
  4 36  1  0
  5 37  1  0
  6 38  1  0
  7 39  1  0
  8 40  1  0
  9 41  1  0
  9 42  1  0
 10 43  1  0
 11 44  1  0
 12 45  1  0
 12 46  1  0
 13 47  1  0
 21 48  1  0
M  END
