
     RDKit          3D

 50 51  0  0  0  0  0  0  0  0999 V2000
    6.4836    0.4947    1.0774 C   0  0  0  0  0  0  0  0  0  0  0  0
   -4.0083   -1.3467   -0.6303 C   0  0  0  0  0  0  0  0  0  0  0  0
   -5.1410    0.7302    0.1505 C   0  0  0  0  0  0  0  0  0  0  0  0
   -3.5286   -0.4496    1.6555 C   0  0  0  0  0  0  0  0  0  0  0  0
   -2.9347    4.3836    0.4096 C   0  0  0  0  0  0  0  0  0  0  0  0
    5.2425    0.5961    0.5855 C   0  0  0  0  0  0  0  0  0  0  0  0
    4.9225    1.0032   -0.8286 C   0  0  0  0  0  0  0  0  0  0  0  0
    1.2033   -3.5146    0.8681 C   0  0  0  0  0  0  0  0  0  0  0  0
    2.5936   -3.5548    0.8162 C   0  0  0  0  0  0  0  0  0  0  0  0
    0.4943   -2.4910    0.2287 C   0  0  0  0  0  0  0  0  0  0  0  0
    3.3159   -2.5832    0.1183 C   0  0  0  0  0  0  0  0  0  0  0  0
    4.3342   -0.1320   -1.6684 C   0  0  0  0  0  0  0  0  0  0  0  0
    1.2011   -1.4875   -0.4685 C   0  0  0  0  0  0  0  0  0  0  0  0
    2.5919   -1.5648   -0.5199 C   0  0  0  0  0  0  0  0  0  0  0  0
    0.8607   -0.3154   -1.2184 C   0  0  0  0  0  0  0  0  0  0  0  0
   -2.6635    0.7877   -0.4356 C   0  0  0  0  0  0  0  0  0  0  0  0
   -0.4745    0.2599   -1.4648 C   0  0  0  0  0  0  0  0  0  0  0  0
   -2.4032    2.1071    0.3098 C   0  0  0  0  0  0  0  0  0  0  0  0
   -3.8145   -0.0550    0.1939 C   0  0  0  0  0  0  0  0  0  0  0  0
   -1.3901    0.0560   -0.4441 N   0  0  0  0  0  0  0  0  0  0  0  0
    1.9646    0.2680   -1.7198 N   0  0  0  0  0  0  0  0  0  0  0  0
    2.9822   -0.4924   -1.2811 N   0  0  0  0  0  0  0  0  0  0  0  0
   -0.7598    0.9035   -2.4720 O   0  0  0  0  0  0  0  0  0  0  0  0
   -1.6391    2.2154    1.2639 O   0  0  0  0  0  0  0  0  0  0  0  0
   -3.1485    3.1183   -0.2158 O   0  0  0  0  0  0  0  0  0  0  0  0
    6.6473    0.2105    2.1128 H   0  0  0  0  0  0  0  0  0  0  0  0
    7.3606    0.6981    0.4707 H   0  0  0  0  0  0  0  0  0  0  0  0
   -4.8528   -1.9346   -0.2525 H   0  0  0  0  0  0  0  0  0  0  0  0
   -3.1223   -1.9894   -0.5906 H   0  0  0  0  0  0  0  0  0  0  0  0
   -4.2094   -1.1162   -1.6826 H   0  0  0  0  0  0  0  0  0  0  0  0
   -5.1126    1.6102    0.8015 H   0  0  0  0  0  0  0  0  0  0  0  0
   -5.9791    0.1092    0.4876 H   0  0  0  0  0  0  0  0  0  0  0  0
   -5.3678    1.0675   -0.8671 H   0  0  0  0  0  0  0  0  0  0  0  0
   -4.3490   -1.0505    2.0653 H   0  0  0  0  0  0  0  0  0  0  0  0
   -3.4211    0.4302    2.2982 H   0  0  0  0  0  0  0  0  0  0  0  0
   -2.6155   -1.0473    1.7441 H   0  0  0  0  0  0  0  0  0  0  0  0
   -1.8872    4.6870    0.3157 H   0  0  0  0  0  0  0  0  0  0  0  0
   -3.5564    5.1237   -0.1017 H   0  0  0  0  0  0  0  0  0  0  0  0
   -3.2354    4.3454    1.4612 H   0  0  0  0  0  0  0  0  0  0  0  0
    4.3976    0.3966    1.2436 H   0  0  0  0  0  0  0  0  0  0  0  0
    4.2326    1.8553   -0.7970 H   0  0  0  0  0  0  0  0  0  0  0  0
    5.8341    1.3599   -1.3243 H   0  0  0  0  0  0  0  0  0  0  0  0
    0.6612   -4.2889    1.4063 H   0  0  0  0  0  0  0  0  0  0  0  0
    3.1272   -4.3583    1.3198 H   0  0  0  0  0  0  0  0  0  0  0  0
   -0.5912   -2.4906    0.2659 H   0  0  0  0  0  0  0  0  0  0  0  0
    4.3999   -2.6255    0.0786 H   0  0  0  0  0  0  0  0  0  0  0  0
    4.2876    0.1717   -2.7215 H   0  0  0  0  0  0  0  0  0  0  0  0
    4.9605   -1.0295   -1.6228 H   0  0  0  0  0  0  0  0  0  0  0  0
   -2.9200    1.0362   -1.4732 H   0  0  0  0  0  0  0  0  0  0  0  0
   -0.9731   -0.1072    0.4660 H   0  0  0  0  0  0  0  0  0  0  0  0
  1  6  2  3
  2 19  1  0
  3 19  1  0
  4 19  1  0
  5 25  1  0
  6  7  1  0
  7 12  1  0
  8  9  2  0
  8 10  1  0
  9 11  1  0
 10 13  2  0
 11 14  2  0
 12 22  1  0
 13 14  1  0
 13 15  1  0
 14 22  1  0
 15 17  1  0
 15 21  2  0
 16 18  1  0
 16 19  1  0
 16 20  1  0
 17 20  1  0
 17 23  2  0
 18 24  2  0
 18 25  1  0
 21 22  1  0
  1 26  1  0
  1 27  1  0
  2 28  1  0
  2 29  1  0
  2 30  1  0
  3 31  1  0
  3 32  1  0
  3 33  1  0
  4 34  1  0
  4 35  1  0
  4 36  1  0
  5 37  1  0
  5 38  1  0
  5 39  1  0
  6 40  1  0
  7 41  1  0
  7 42  1  0
  8 43  1  0
  9 44  1  0
 10 45  1  0
 11 46  1  0
 12 47  1  0
 12 48  1  0
 16 49  1  0
 20 50  1  0
M  END
