
     RDKit          3D

 50 52  0  0  0  0  0  0  0  0999 V2000
    5.7870    1.8959   -1.1446 C   0  0  0  0  0  0  0  0  0  0  0  0
    4.8015   -1.9987    0.7274 C   0  0  0  0  0  0  0  0  0  0  0  0
   -0.4535    1.0752    2.5060 C   0  0  0  0  0  0  0  0  0  0  0  0
    5.1682    0.5191   -1.3294 C   0  0  0  0  0  0  0  0  0  0  0  0
    4.7696   -0.4903    0.9201 C   0  0  0  0  0  0  0  0  0  0  0  0
   -6.0622    1.2562   -1.3033 C   0  0  0  0  0  0  0  0  0  0  0  0
   -4.8189    1.6861   -0.8145 C   0  0  0  0  0  0  0  0  0  0  0  0
   -6.3722   -0.1077   -1.4578 C   0  0  0  0  0  0  0  0  0  0  0  0
    1.9420    0.2309    0.7215 C   0  0  0  0  0  0  0  0  0  0  0  0
    0.4883    0.5270    0.3348 C   0  0  0  0  0  0  0  0  0  0  0  0
   -2.4589    1.0881    0.0520 C   0  0  0  0  0  0  0  0  0  0  0  0
   -1.9560   -1.5041    0.1712 C   0  0  0  0  0  0  0  0  0  0  0  0
   -4.0791   -2.8288   -0.6771 C   0  0  0  0  0  0  0  0  0  0  0  0
   -3.8420    0.7554   -0.4504 C   0  0  0  0  0  0  0  0  0  0  0  0
   -3.3398   -1.7143   -0.3547 C   0  0  0  0  0  0  0  0  0  0  0  0
   -1.8441   -0.1014    0.8913 C   0  0  0  0  0  0  0  0  0  0  0  0
   -5.3763   -1.0204   -1.1059 C   0  0  0  0  0  0  0  0  0  0  0  0
    2.8962    0.5759   -0.4109 C   0  0  0  0  0  0  0  0  0  0  0  0
   -4.1542   -0.5961   -0.6249 C   0  0  0  0  0  0  0  0  0  0  0  0
   -5.3114   -2.3969   -1.1295 N   0  0  0  0  0  0  0  0  0  0  0  0
   -0.4578    0.1183    1.3944 N   0  0  0  0  0  0  0  0  0  0  0  0
    4.2290    0.1986   -0.2540 N   0  0  0  0  0  0  0  0  0  0  0  0
    2.5064    1.1842   -1.4091 O   0  0  0  0  0  0  0  0  0  0  0  0
    6.4825    2.1127   -1.9612 H   0  0  0  0  0  0  0  0  0  0  0  0
    6.3382    1.9573   -0.2008 H   0  0  0  0  0  0  0  0  0  0  0  0
    5.0188    2.6760   -1.1330 H   0  0  0  0  0  0  0  0  0  0  0  0
    5.1956   -2.4872    1.6239 H   0  0  0  0  0  0  0  0  0  0  0  0
    3.8010   -2.3966    0.5320 H   0  0  0  0  0  0  0  0  0  0  0  0
    5.4387   -2.2762   -0.1183 H   0  0  0  0  0  0  0  0  0  0  0  0
    0.5318    1.1254    2.9795 H   0  0  0  0  0  0  0  0  0  0  0  0
   -1.1457    0.7579    3.2942 H   0  0  0  0  0  0  0  0  0  0  0  0
   -0.7320    2.0861    2.1902 H   0  0  0  0  0  0  0  0  0  0  0  0
    4.6464    0.4852   -2.2925 H   0  0  0  0  0  0  0  0  0  0  0  0
    5.9497   -0.2477   -1.3622 H   0  0  0  0  0  0  0  0  0  0  0  0
    4.1753   -0.2509    1.8057 H   0  0  0  0  0  0  0  0  0  0  0  0
    5.7806   -0.1130    1.1101 H   0  0  0  0  0  0  0  0  0  0  0  0
   -6.8087    2.0000   -1.5755 H   0  0  0  0  0  0  0  0  0  0  0  0
   -4.6193    2.7505   -0.7204 H   0  0  0  0  0  0  0  0  0  0  0  0
   -7.3359   -0.4257   -1.8389 H   0  0  0  0  0  0  0  0  0  0  0  0
    2.2334    0.8267    1.5921 H   0  0  0  0  0  0  0  0  0  0  0  0
    2.0380   -0.8328    0.9620 H   0  0  0  0  0  0  0  0  0  0  0  0
    0.3683    1.5909    0.0913 H   0  0  0  0  0  0  0  0  0  0  0  0
    0.2810   -0.0247   -0.5895 H   0  0  0  0  0  0  0  0  0  0  0  0
   -1.8330    1.3105   -0.8196 H   0  0  0  0  0  0  0  0  0  0  0  0
   -2.5104    1.9880    0.6749 H   0  0  0  0  0  0  0  0  0  0  0  0
   -1.7005   -2.3011    0.8798 H   0  0  0  0  0  0  0  0  0  0  0  0
   -1.2561   -1.5687   -0.6691 H   0  0  0  0  0  0  0  0  0  0  0  0
   -3.8495   -3.8847   -0.6310 H   0  0  0  0  0  0  0  0  0  0  0  0
   -2.4905   -0.2089    1.7774 H   0  0  0  0  0  0  0  0  0  0  0  0
   -6.0593   -3.0010   -1.4392 H   0  0  0  0  0  0  0  0  0  0  0  0
  1  4  1  0
  2  5  1  0
  3 21  1  0
  4 22  1  0
  5 22  1  0
  6  7  2  0
  6  8  1  0
  7 14  1  0
  8 17  2  0
  9 10  1  0
  9 18  1  0
 10 21  1  0
 11 14  1  0
 11 16  1  0
 12 15  1  0
 12 16  1  0
 13 15  2  0
 13 20  1  0
 14 19  2  0
 15 19  1  0
 16 21  1  0
 17 19  1  0
 17 20  1  0
 18 22  1  0
 18 23  2  0
  1 24  1  0
  1 25  1  0
  1 26  1  0
  2 27  1  0
  2 28  1  0
  2 29  1  0
  3 30  1  0
  3 31  1  0
  3 32  1  0
  4 33  1  0
  4 34  1  0
  5 35  1  0
  5 36  1  0
  6 37  1  0
  7 38  1  0
  8 39  1  0
  9 40  1  0
  9 41  1  0
 10 42  1  0
 10 43  1  0
 11 44  1  0
 11 45  1  0
 12 46  1  0
 12 47  1  0
 13 48  1  0
 16 49  1  0
 20 50  1  0
M  END
