
     RDKit          3D

 49 51  0  0  0  0  0  0  0  0999 V2000
    6.0315    1.7753   -1.6853 C   0  0  0  0  0  0  0  0  0  0  0  0
   -3.6771   -1.0654   -1.6023 C   0  0  0  0  0  0  0  0  0  0  0  0
   -0.3272    3.1679   -0.3359 C   0  0  0  0  0  0  0  0  0  0  0  0
    4.7370    1.4986   -0.9373 C   0  0  0  0  0  0  0  0  0  0  0  0
    4.3123    0.0344   -1.0793 C   0  0  0  0  0  0  0  0  0  0  0  0
    2.8781   -0.2559    0.9810 C   0  0  0  0  0  0  0  0  0  0  0  0
    1.8417   -0.4779   -1.1818 C   0  0  0  0  0  0  0  0  0  0  0  0
    1.6455   -0.4921    1.5955 C   0  0  0  0  0  0  0  0  0  0  0  0
    0.6106   -0.7202   -0.5665 C   0  0  0  0  0  0  0  0  0  0  0  0
   -4.0065   -1.9731    1.3133 C   0  0  0  0  0  0  0  0  0  0  0  0
   -4.2406   -0.4687    1.2703 C   0  0  0  0  0  0  0  0  0  0  0  0
   -1.4831   -2.3021    1.1414 C   0  0  0  0  0  0  0  0  0  0  0  0
    2.9868   -0.2414   -0.4140 C   0  0  0  0  0  0  0  0  0  0  0  0
    0.4924   -0.7256    0.8300 C   0  0  0  0  0  0  0  0  0  0  0  0
   -2.8153   -2.2119    0.3741 C   0  0  0  0  0  0  0  0  0  0  0  0
   -0.8519   -0.9337    1.5294 C   0  0  0  0  0  0  0  0  0  0  0  0
   -3.0416    0.0745    0.4782 C   0  0  0  0  0  0  0  0  0  0  0  0
   -1.8275    0.2767    1.4262 C   0  0  0  0  0  0  0  0  0  0  0  0
   -1.1144    1.6027    1.2188 C   0  0  0  0  0  0  0  0  0  0  0  0
   -2.7489   -1.0154   -0.4747 N   0  0  0  0  0  0  0  0  0  0  0  0
   -0.6011    2.2295    2.1412 O   0  0  0  0  0  0  0  0  0  0  0  0
   -1.0919    1.9887   -0.0845 O   0  0  0  0  0  0  0  0  0  0  0  0
    6.8343    1.1145   -1.3447 H   0  0  0  0  0  0  0  0  0  0  0  0
    6.3496    2.8109   -1.5269 H   0  0  0  0  0  0  0  0  0  0  0  0
    5.8974    1.6250   -2.7618 H   0  0  0  0  0  0  0  0  0  0  0  0
   -3.3987   -1.8806   -2.2795 H   0  0  0  0  0  0  0  0  0  0  0  0
   -4.7221   -1.2126   -1.3118 H   0  0  0  0  0  0  0  0  0  0  0  0
   -3.6137   -0.1380   -2.1825 H   0  0  0  0  0  0  0  0  0  0  0  0
    0.7381    2.9702   -0.1713 H   0  0  0  0  0  0  0  0  0  0  0  0
   -0.6716    4.0000    0.2883 H   0  0  0  0  0  0  0  0  0  0  0  0
   -0.4662    3.4438   -1.3849 H   0  0  0  0  0  0  0  0  0  0  0  0
    3.9515    2.1586   -1.3270 H   0  0  0  0  0  0  0  0  0  0  0  0
    4.8727    1.7556    0.1208 H   0  0  0  0  0  0  0  0  0  0  0  0
    5.0720   -0.6283   -0.6456 H   0  0  0  0  0  0  0  0  0  0  0  0
    4.2532   -0.2302   -2.1430 H   0  0  0  0  0  0  0  0  0  0  0  0
    3.7523   -0.0728    1.6022 H   0  0  0  0  0  0  0  0  0  0  0  0
    1.8935   -0.4689   -2.2682 H   0  0  0  0  0  0  0  0  0  0  0  0
    1.5935   -0.4757    2.6825 H   0  0  0  0  0  0  0  0  0  0  0  0
   -0.2600   -0.8878   -1.1957 H   0  0  0  0  0  0  0  0  0  0  0  0
   -3.8201   -2.3193    2.3355 H   0  0  0  0  0  0  0  0  0  0  0  0
   -4.9005   -2.4888    0.9457 H   0  0  0  0  0  0  0  0  0  0  0  0
   -4.3401   -0.0418    2.2732 H   0  0  0  0  0  0  0  0  0  0  0  0
   -5.1788   -0.2545    0.7444 H   0  0  0  0  0  0  0  0  0  0  0  0
   -1.6385   -2.8879    2.0596 H   0  0  0  0  0  0  0  0  0  0  0  0
   -0.7732   -2.8942    0.5446 H   0  0  0  0  0  0  0  0  0  0  0  0
   -2.9496   -3.1401   -0.1948 H   0  0  0  0  0  0  0  0  0  0  0  0
   -0.6116   -1.0261    2.6010 H   0  0  0  0  0  0  0  0  0  0  0  0
   -3.3194    1.0087   -0.0237 H   0  0  0  0  0  0  0  0  0  0  0  0
   -2.2532    0.3953    2.4352 H   0  0  0  0  0  0  0  0  0  0  0  0
  1  4  1  0
  2 20  1  0
  3 22  1  0
  4  5  1  0
  5 13  1  0
  6  8  2  0
  6 13  1  0
  7  9  1  0
  7 13  2  0
  8 14  1  0
  9 14  2  0
 10 11  1  0
 10 15  1  0
 11 17  1  0
 12 15  1  0
 12 16  1  0
 14 16  1  0
 15 20  1  0
 16 18  1  0
 17 18  1  0
 17 20  1  0
 18 19  1  0
 19 21  2  0
 19 22  1  0
  1 23  1  0
  1 24  1  0
  1 25  1  0
  2 26  1  0
  2 27  1  0
  2 28  1  0
  3 29  1  0
  3 30  1  0
  3 31  1  0
  4 32  1  0
  4 33  1  0
  5 34  1  0
  5 35  1  0
  6 36  1  0
  7 37  1  0
  8 38  1  0
  9 39  1  0
 10 40  1  0
 10 41  1  0
 11 42  1  0
 11 43  1  0
 12 44  1  0
 12 45  1  0
 15 46  1  0
 16 47  1  0
 17 48  1  0
 18 49  1  0
M  END
