
     RDKit          3D

 37 40  0  0  0  0  0  0  0  0999 V2000
    4.1121    2.0677   -1.3727 C   0  0  0  0  0  0  0  0  0  0  0  0
   -3.5870    1.0170    2.0083 C   0  0  0  0  0  0  0  0  0  0  0  0
   -2.6282    1.8114    1.3936 C   0  0  0  0  0  0  0  0  0  0  0  0
    1.9153   -1.4720    1.7706 C   0  0  0  0  0  0  0  0  0  0  0  0
    3.1656   -0.8813    1.8953 C   0  0  0  0  0  0  0  0  0  0  0  0
   -2.7732   -2.5651   -1.1992 C   0  0  0  0  0  0  0  0  0  0  0  0
   -3.8496   -0.2604    1.5150 C   0  0  0  0  0  0  0  0  0  0  0  0
   -3.4409   -2.0499   -0.0883 C   0  0  0  0  0  0  0  0  0  0  0  0
   -1.9269    1.3267    0.2881 C   0  0  0  0  0  0  0  0  0  0  0  0
    1.0680   -1.1291    0.7103 C   0  0  0  0  0  0  0  0  0  0  0  0
   -1.7956   -1.8052   -1.8288 C   0  0  0  0  0  0  0  0  0  0  0  0
    3.6036    0.0619    0.9647 C   0  0  0  0  0  0  0  0  0  0  0  0
    1.8205    1.2827   -1.9447 C   0  0  0  0  0  0  0  0  0  0  0  0
   -3.1543   -0.7642    0.4035 C   0  0  0  0  0  0  0  0  0  0  0  0
   -2.1641    0.0293   -0.2265 C   0  0  0  0  0  0  0  0  0  0  0  0
    1.4731   -0.1685   -0.2459 C   0  0  0  0  0  0  0  0  0  0  0  0
   -1.4801   -0.5309   -1.3360 C   0  0  0  0  0  0  0  0  0  0  0  0
    0.8786    0.4109   -1.4221 C   0  0  0  0  0  0  0  0  0  0  0  0
    2.7458    0.4002   -0.0958 C   0  0  0  0  0  0  0  0  0  0  0  0
   -0.4241    0.2056   -2.0551 C   0  0  0  0  0  0  0  0  0  0  0  0
    2.9244    1.2753   -1.1437 N   0  0  0  0  0  0  0  0  0  0  0  0
   -0.6854    0.6150   -3.1850 O   0  0  0  0  0  0  0  0  0  0  0  0
    3.9827    2.6710   -2.2749 H   0  0  0  0  0  0  0  0  0  0  0  0
    4.2631    2.7216   -0.5100 H   0  0  0  0  0  0  0  0  0  0  0  0
    4.9606    1.3905   -1.4998 H   0  0  0  0  0  0  0  0  0  0  0  0
   -4.1355    1.3917    2.8685 H   0  0  0  0  0  0  0  0  0  0  0  0
   -2.4234    2.8104    1.7700 H   0  0  0  0  0  0  0  0  0  0  0  0
    1.5886   -2.2086    2.5005 H   0  0  0  0  0  0  0  0  0  0  0  0
    3.8128   -1.1583    2.7240 H   0  0  0  0  0  0  0  0  0  0  0  0
   -3.0202   -3.5556   -1.5730 H   0  0  0  0  0  0  0  0  0  0  0  0
   -4.6106   -0.8626    2.0073 H   0  0  0  0  0  0  0  0  0  0  0  0
   -4.2044   -2.6613    0.3898 H   0  0  0  0  0  0  0  0  0  0  0  0
   -1.1892    1.9825   -0.1707 H   0  0  0  0  0  0  0  0  0  0  0  0
    0.1018   -1.6186    0.6440 H   0  0  0  0  0  0  0  0  0  0  0  0
   -1.2772   -2.1998   -2.7001 H   0  0  0  0  0  0  0  0  0  0  0  0
    4.5849    0.5146    1.0652 H   0  0  0  0  0  0  0  0  0  0  0  0
    1.7684    1.9055   -2.8299 H   0  0  0  0  0  0  0  0  0  0  0  0
  1 21  1  0
  2  3  2  0
  2  7  1  0
  3  9  1  0
  4  5  2  0
  4 10  1  0
  5 12  1  0
  6  8  2  0
  6 11  1  0
  7 14  2  0
  8 14  1  0
  9 15  2  0
 10 16  2  0
 11 17  2  0
 12 19  2  0
 13 18  2  0
 13 21  1  0
 14 15  1  0
 15 17  1  0
 16 18  1  0
 16 19  1  0
 17 20  1  0
 18 20  1  0
 19 21  1  0
 20 22  2  0
  1 23  1  0
  1 24  1  0
  1 25  1  0
  2 26  1  0
  3 27  1  0
  4 28  1  0
  5 29  1  0
  6 30  1  0
  7 31  1  0
  8 32  1  0
  9 33  1  0
 10 34  1  0
 11 35  1  0
 12 36  1  0
 13 37  1  0
M  END
