
     RDKit          3D

 44 47  0  0  0  0  0  0  0  0999 V2000
   -0.5350   -3.7443    0.8210 C   0  0  0  0  0  0  0  0  0  0  0  0
    0.3912   -3.1362   -0.2354 C   0  0  0  0  0  0  0  0  0  0  0  0
    4.4862    1.8323   -2.2794 C   0  0  0  0  0  0  0  0  0  0  0  0
    3.7891    1.8424    0.0370 C   0  0  0  0  0  0  0  0  0  0  0  0
   -2.8365    0.7873    2.0381 C   0  0  0  0  0  0  0  0  0  0  0  0
   -4.5891    0.7383    0.3537 C   0  0  0  0  0  0  0  0  0  0  0  0
    5.4744    2.7760   -1.9847 C   0  0  0  0  0  0  0  0  0  0  0  0
    4.7776    2.7859    0.3301 C   0  0  0  0  0  0  0  0  0  0  0  0
   -3.0413    2.1577    2.2055 C   0  0  0  0  0  0  0  0  0  0  0  0
   -4.7895    2.1086    0.5256 C   0  0  0  0  0  0  0  0  0  0  0  0
   -1.9870   -3.3309    0.6215 C   0  0  0  0  0  0  0  0  0  0  0  0
   -1.0045   -1.0644    0.2105 C   0  0  0  0  0  0  0  0  0  0  0  0
    3.6314    1.3543   -1.2713 C   0  0  0  0  0  0  0  0  0  0  0  0
   -3.5982    0.0831    1.0958 C   0  0  0  0  0  0  0  0  0  0  0  0
   -0.1337   -1.8091   -0.8087 C   0  0  0  0  0  0  0  0  0  0  0  0
    5.6104    3.2433   -0.6835 C   0  0  0  0  0  0  0  0  0  0  0  0
   -4.0116    2.8052    1.4457 C   0  0  0  0  0  0  0  0  0  0  0  0
    2.5956    0.3689   -1.5671 C   0  0  0  0  0  0  0  0  0  0  0  0
    0.9870   -0.9512   -1.2725 C   0  0  0  0  0  0  0  0  0  0  0  0
   -3.4206   -1.3760    0.9124 C   0  0  0  0  0  0  0  0  0  0  0  0
    6.5574    4.1472   -0.4021 F   0  0  0  0  0  0  0  0  0  0  0  0
   -4.2061    4.1199    1.6103 F   0  0  0  0  0  0  0  0  0  0  0  0
    1.7366   -0.1103   -0.5984 N   0  0  0  0  0  0  0  0  0  0  0  0
    2.3816   -0.1553   -2.7856 N   0  0  0  0  0  0  0  0  0  0  0  0
   -2.1446   -1.8786    0.6597 N   0  0  0  0  0  0  0  0  0  0  0  0
   -4.4191   -2.0873    0.9939 O   0  0  0  0  0  0  0  0  0  0  0  0
    1.3178   -1.0314   -2.5913 O   0  0  0  0  0  0  0  0  0  0  0  0
   -0.2040   -3.4112    1.8133 H   0  0  0  0  0  0  0  0  0  0  0  0
   -0.4438   -4.8361    0.8095 H   0  0  0  0  0  0  0  0  0  0  0  0
    0.5165   -3.8475   -1.0625 H   0  0  0  0  0  0  0  0  0  0  0  0
    1.3894   -3.0178    0.2061 H   0  0  0  0  0  0  0  0  0  0  0  0
    4.3901    1.4743   -3.3030 H   0  0  0  0  0  0  0  0  0  0  0  0
    3.1418    1.4896    0.8379 H   0  0  0  0  0  0  0  0  0  0  0  0
   -2.1006    0.2723    2.6498 H   0  0  0  0  0  0  0  0  0  0  0  0
   -5.2033    0.1807   -0.3500 H   0  0  0  0  0  0  0  0  0  0  0  0
    6.1357    3.1468   -2.7615 H   0  0  0  0  0  0  0  0  0  0  0  0
    4.9014    3.1643    1.3399 H   0  0  0  0  0  0  0  0  0  0  0  0
   -2.4611    2.7228    2.9283 H   0  0  0  0  0  0  0  0  0  0  0  0
   -5.5500    2.6340   -0.0435 H   0  0  0  0  0  0  0  0  0  0  0  0
   -2.6164   -3.7846    1.3955 H   0  0  0  0  0  0  0  0  0  0  0  0
   -2.3578   -3.6791   -0.3501 H   0  0  0  0  0  0  0  0  0  0  0  0
   -0.4222   -0.8111    1.1054 H   0  0  0  0  0  0  0  0  0  0  0  0
   -1.3660   -0.1271   -0.2262 H   0  0  0  0  0  0  0  0  0  0  0  0
   -0.7692   -2.0457   -1.6741 H   0  0  0  0  0  0  0  0  0  0  0  0
  1  2  1  0
  1 11  1  0
  2 15  1  0
  3  7  2  0
  3 13  1  0
  4  8  1  0
  4 13  2  0
  5  9  2  0
  5 14  1  0
  6 10  1  0
  6 14  2  0
  7 16  1  0
  8 16  2  0
  9 17  1  0
 10 17  2  0
 11 25  1  0
 12 15  1  0
 12 25  1  0
 13 18  1  0
 14 20  1  0
 15 19  1  0
 16 21  1  0
 17 22  1  0
 18 23  1  0
 18 24  2  0
 19 23  2  0
 19 27  1  0
 20 25  1  0
 20 26  2  0
 24 27  1  0
  1 28  1  0
  1 29  1  0
  2 30  1  0
  2 31  1  0
  3 32  1  0
  4 33  1  0
  5 34  1  0
  6 35  1  0
  7 36  1  0
  8 37  1  0
  9 38  1  0
 10 39  1  0
 11 40  1  0
 11 41  1  0
 12 42  1  0
 12 43  1  0
 15 44  1  0
M  END
