
     RDKit          3D

 50 52  0  0  0  0  0  0  0  0999 V2000
   -2.8243   -1.3364    2.9021 C   0  0  0  0  0  0  0  0  0  0  0  0
    0.1605    3.5832   -1.0624 C   0  0  0  0  0  0  0  0  0  0  0  0
    5.3342   -1.5514   -0.3382 C   0  0  0  0  0  0  0  0  0  0  0  0
   -3.5293   -1.9972    1.8935 C   0  0  0  0  0  0  0  0  0  0  0  0
   -0.8733    3.2972   -0.1685 C   0  0  0  0  0  0  0  0  0  0  0  0
    1.1129    2.6089   -1.3577 C   0  0  0  0  0  0  0  0  0  0  0  0
   -2.3201   -0.0443    2.6907 C   0  0  0  0  0  0  0  0  0  0  0  0
    6.5309   -0.6329   -0.6000 C   0  0  0  0  0  0  0  0  0  0  0  0
    4.0352   -1.0733   -0.9838 C   0  0  0  0  0  0  0  0  0  0  0  0
   -4.4524   -1.8494   -0.5179 C   0  0  0  0  0  0  0  0  0  0  0  0
   -3.5776    0.4309   -0.9026 C   0  0  0  0  0  0  0  0  0  0  0  0
   -0.0039    1.0614    0.1411 C   0  0  0  0  0  0  0  0  0  0  0  0
   -6.0931    0.0085   -1.1745 C   0  0  0  0  0  0  0  0  0  0  0  0
   -4.6750   -0.5627   -1.3449 C   0  0  0  0  0  0  0  0  0  0  0  0
   -3.7334   -1.3400    0.6901 C   0  0  0  0  0  0  0  0  0  0  0  0
   -0.9665    2.0338    0.4225 C   0  0  0  0  0  0  0  0  0  0  0  0
    1.0316    1.3611   -0.7423 C   0  0  0  0  0  0  0  0  0  0  0  0
   -3.2310   -0.0537    0.4716 C   0  0  0  0  0  0  0  0  0  0  0  0
   -2.5022    0.5904    1.4598 C   0  0  0  0  0  0  0  0  0  0  0  0
    7.8279   -1.2464   -0.1103 C   0  0  0  0  0  0  0  0  0  0  0  0
    8.0800   -2.4115   -0.7451 F   0  0  0  0  0  0  0  0  0  0  0  0
    7.7832   -1.4953    1.2149 F   0  0  0  0  0  0  0  0  0  0  0  0
    8.8672   -0.4178   -0.3434 F   0  0  0  0  0  0  0  0  0  0  0  0
   -6.3506    0.5465    0.1126 O   0  0  0  0  0  0  0  0  0  0  0  0
    4.1578    1.5265   -0.6528 O   0  0  0  0  0  0  0  0  0  0  0  0
    3.1095    0.1052    1.1701 O   0  0  0  0  0  0  0  0  0  0  0  0
   -2.0144    1.8602    1.3015 O   0  0  0  0  0  0  0  0  0  0  0  0
    1.9452    0.3895   -1.0490 O   0  0  0  0  0  0  0  0  0  0  0  0
    3.3592    0.3941   -0.2273 S   0  0  0  0  0  6  0  0  0  0  0  0
   -2.6630   -1.8247    3.8602 H   0  0  0  0  0  0  0  0  0  0  0  0
    0.2235    4.5654   -1.5239 H   0  0  0  0  0  0  0  0  0  0  0  0
    5.1954   -1.6721    0.7426 H   0  0  0  0  0  0  0  0  0  0  0  0
    5.5586   -2.5469   -0.7404 H   0  0  0  0  0  0  0  0  0  0  0  0
   -3.9137   -2.9991    2.0581 H   0  0  0  0  0  0  0  0  0  0  0  0
   -1.6132    4.0588    0.0655 H   0  0  0  0  0  0  0  0  0  0  0  0
    1.9170    2.8311   -2.0544 H   0  0  0  0  0  0  0  0  0  0  0  0
   -1.7765    0.4618    3.4842 H   0  0  0  0  0  0  0  0  0  0  0  0
    6.6157   -0.4280   -1.6731 H   0  0  0  0  0  0  0  0  0  0  0  0
    6.3895    0.3267   -0.0932 H   0  0  0  0  0  0  0  0  0  0  0  0
    4.1741   -0.8660   -2.0494 H   0  0  0  0  0  0  0  0  0  0  0  0
    3.2752   -1.8552   -0.8754 H   0  0  0  0  0  0  0  0  0  0  0  0
   -5.3899   -2.3507   -0.2598 H   0  0  0  0  0  0  0  0  0  0  0  0
   -3.8025   -2.5465   -1.0583 H   0  0  0  0  0  0  0  0  0  0  0  0
   -2.7010    0.3400   -1.5532 H   0  0  0  0  0  0  0  0  0  0  0  0
   -3.9268    1.4679   -0.9040 H   0  0  0  0  0  0  0  0  0  0  0  0
   -0.0416    0.0829    0.6100 H   0  0  0  0  0  0  0  0  0  0  0  0
   -6.8441   -0.7607   -1.3820 H   0  0  0  0  0  0  0  0  0  0  0  0
   -6.2489    0.8172   -1.8966 H   0  0  0  0  0  0  0  0  0  0  0  0
   -4.5627   -0.7963   -2.4113 H   0  0  0  0  0  0  0  0  0  0  0  0
   -6.0529   -0.0905    0.7854 H   0  0  0  0  0  0  0  0  0  0  0  0
  1  4  2  0
  1  7  1  0
  2  5  2  0
  2  6  1  0
  3  8  1  0
  3  9  1  0
  4 15  1  0
  5 16  1  0
  6 17  2  0
  7 19  2  0
  8 20  1  0
  9 29  1  0
 10 14  1  0
 10 15  1  0
 11 14  1  0
 11 18  1  0
 12 16  2  0
 12 17  1  0
 13 14  1  0
 13 24  1  0
 15 18  2  0
 16 27  1  0
 17 28  1  0
 18 19  1  0
 19 27  1  0
 20 21  1  0
 20 22  1  0
 20 23  1  0
 25 29  2  0
 26 29  2  0
 28 29  1  0
  1 30  1  0
  2 31  1  0
  3 32  1  0
  3 33  1  0
  4 34  1  0
  5 35  1  0
  6 36  1  0
  7 37  1  0
  8 38  1  0
  8 39  1  0
  9 40  1  0
  9 41  1  0
 10 42  1  0
 10 43  1  0
 11 44  1  0
 11 45  1  0
 12 46  1  0
 13 47  1  0
 13 48  1  0
 14 49  1  0
 24 50  1  0
M  END
