
     RDKit          3D

 44 46  0  0  0  0  0  0  0  0999 V2000
    2.5533    2.9689    0.7920 C   0  0  0  0  0  0  0  0  0  0  0  0
    1.8387   -3.6534    0.1281 C   0  0  0  0  0  0  0  0  0  0  0  0
    3.5693    1.8477    0.9475 C   0  0  0  0  0  0  0  0  0  0  0  0
   -3.7168    3.1371   -0.0130 C   0  0  0  0  0  0  0  0  0  0  0  0
   -2.3408    2.9770    0.0827 C   0  0  0  0  0  0  0  0  0  0  0  0
    3.6458   -0.4257   -2.1054 C   0  0  0  0  0  0  0  0  0  0  0  0
   -4.3323   -1.6890    0.0072 C   0  0  0  0  0  0  0  0  0  0  0  0
    3.9154    0.6326   -1.2389 C   0  0  0  0  0  0  0  0  0  0  0  0
   -4.5436    2.0153   -0.0532 C   0  0  0  0  0  0  0  0  0  0  0  0
   -4.8525   -0.3989   -0.0381 C   0  0  0  0  0  0  0  0  0  0  0  0
    2.7411   -1.4215   -1.7341 C   0  0  0  0  0  0  0  0  0  0  0  0
   -1.7918    1.6938    0.1337 C   0  0  0  0  0  0  0  0  0  0  0  0
   -2.9558   -1.8809    0.0886 C   0  0  0  0  0  0  0  0  0  0  0  0
    2.3748   -0.3014    0.3696 C   0  0  0  0  0  0  0  0  0  0  0  0
    3.2879    0.7016    0.0097 C   0  0  0  0  0  0  0  0  0  0  0  0
   -4.0062    0.7181   -0.0025 C   0  0  0  0  0  0  0  0  0  0  0  0
    2.0895   -1.3733   -0.4932 C   0  0  0  0  0  0  0  0  0  0  0  0
   -2.6028    0.5358    0.0865 C   0  0  0  0  0  0  0  0  0  0  0  0
   -2.0761   -0.7878    0.1357 C   0  0  0  0  0  0  0  0  0  0  0  0
    0.0025   -2.1038    0.5899 C   0  0  0  0  0  0  0  0  0  0  0  0
   -0.3913   -2.8524    1.5748 N   0  0  0  0  0  0  0  0  0  0  0  0
   -0.6677   -0.9764    0.1847 N   0  0  0  0  0  0  0  0  0  0  0  0
    1.1483   -2.3859   -0.1423 N   0  0  0  0  0  0  0  0  0  0  0  0
    2.7902    3.7914    1.4742 H   0  0  0  0  0  0  0  0  0  0  0  0
    2.5511    3.3642   -0.2295 H   0  0  0  0  0  0  0  0  0  0  0  0
    1.5402    2.6218    1.0201 H   0  0  0  0  0  0  0  0  0  0  0  0
    1.1199   -4.4803    0.1684 H   0  0  0  0  0  0  0  0  0  0  0  0
    2.3714   -3.6124    1.0856 H   0  0  0  0  0  0  0  0  0  0  0  0
    2.5566   -3.9141   -0.6579 H   0  0  0  0  0  0  0  0  0  0  0  0
    3.5667    1.4842    1.9823 H   0  0  0  0  0  0  0  0  0  0  0  0
    4.5786    2.2367    0.7656 H   0  0  0  0  0  0  0  0  0  0  0  0
   -4.1492    4.1334   -0.0514 H   0  0  0  0  0  0  0  0  0  0  0  0
   -1.6911    3.8472    0.1226 H   0  0  0  0  0  0  0  0  0  0  0  0
    4.1368   -0.4731   -3.0740 H   0  0  0  0  0  0  0  0  0  0  0  0
   -4.9985   -2.5471   -0.0298 H   0  0  0  0  0  0  0  0  0  0  0  0
    4.6203    1.4032   -1.5433 H   0  0  0  0  0  0  0  0  0  0  0  0
   -5.6194    2.1622   -0.1231 H   0  0  0  0  0  0  0  0  0  0  0  0
   -5.9310   -0.2715   -0.1048 H   0  0  0  0  0  0  0  0  0  0  0  0
    2.5279   -2.2292   -2.4301 H   0  0  0  0  0  0  0  0  0  0  0  0
   -0.7114    1.6055    0.2241 H   0  0  0  0  0  0  0  0  0  0  0  0
   -2.5747   -2.9000    0.0908 H   0  0  0  0  0  0  0  0  0  0  0  0
    1.8903   -0.2546    1.3439 H   0  0  0  0  0  0  0  0  0  0  0  0
   -1.2226   -2.4072    1.9772 H   0  0  0  0  0  0  0  0  0  0  0  0
   -0.2411   -0.5376   -0.6255 H   0  0  0  0  0  0  0  0  0  0  0  0
  1  3  1  0
  2 23  1  0
  3 15  1  0
  4  5  2  0
  4  9  1  0
  5 12  1  0
  6  8  2  0
  6 11  1  0
  7 10  2  0
  7 13  1  0
  8 15  1  0
  9 16  2  0
 10 16  1  0
 11 17  2  0
 12 18  2  0
 13 19  2  0
 14 15  2  0
 14 17  1  0
 16 18  1  0
 17 23  1  0
 18 19  1  0
 19 22  1  0
 20 21  2  3
 20 22  1  0
 20 23  1  0
  1 24  1  0
  1 25  1  0
  1 26  1  0
  2 27  1  0
  2 28  1  0
  2 29  1  0
  3 30  1  0
  3 31  1  0
  4 32  1  0
  5 33  1  0
  6 34  1  0
  7 35  1  0
  8 36  1  0
  9 37  1  0
 10 38  1  0
 11 39  1  0
 12 40  1  0
 13 41  1  0
 14 42  1  0
 21 43  1  0
 22 44  1  0
M  END
