
     RDKit          3D

 47 50  0  0  0  0  0  0  0  0999 V2000
   -2.7690   -2.1098    0.0480 C   0  0  0  0  0  0  0  0  0  0  0  0
    5.7048    1.1454   -1.3453 C   0  0  0  0  0  0  0  0  0  0  0  0
    4.3991    1.3114   -1.8044 C   0  0  0  0  0  0  0  0  0  0  0  0
    5.9586    0.4449   -0.1621 C   0  0  0  0  0  0  0  0  0  0  0  0
    3.3080    0.7842   -1.1026 C   0  0  0  0  0  0  0  0  0  0  0  0
   -4.4665    0.2631    0.6943 C   0  0  0  0  0  0  0  0  0  0  0  0
   -3.7569    1.3355   -1.3480 C   0  0  0  0  0  0  0  0  0  0  0  0
   -5.4328    1.2581    0.8750 C   0  0  0  0  0  0  0  0  0  0  0  0
   -4.7213    2.3298   -1.1680 C   0  0  0  0  0  0  0  0  0  0  0  0
    0.8349   -1.6772   -0.0835 C   0  0  0  0  0  0  0  0  0  0  0  0
    0.5684    0.5791    1.1018 C   0  0  0  0  0  0  0  0  0  0  0  0
   -0.1012   -0.9860   -1.0724 C   0  0  0  0  0  0  0  0  0  0  0  0
   -0.9171    0.3075    0.8800 C   0  0  0  0  0  0  0  0  0  0  0  0
   -2.5339   -0.7703   -0.6714 C   0  0  0  0  0  0  0  0  0  0  0  0
   -3.6181    0.2814   -0.4246 C   0  0  0  0  0  0  0  0  0  0  0  0
   -5.5570    2.2851   -0.0569 C   0  0  0  0  0  0  0  0  0  0  0  0
    1.3436   -0.7394    1.0239 C   0  0  0  0  0  0  0  0  0  0  0  0
    4.8784   -0.0909    0.5567 C   0  0  0  0  0  0  0  0  0  0  0  0
    3.5748    0.0821    0.0802 C   0  0  0  0  0  0  0  0  0  0  0  0
    3.6393   -1.0643    1.9635 C   0  0  0  0  0  0  0  0  0  0  0  0
   -6.7457    3.5078    0.1707 Cl  0  0  0  0  0  0  0  0  0  0  0  0
    4.8948   -0.8049    1.7285 N   0  0  0  0  0  0  0  0  0  0  0  0
   -1.1823   -0.2133   -0.4615 N   0  0  0  0  0  0  0  0  0  0  0  0
    2.7897   -0.5624    1.0134 N   0  0  0  0  0  0  0  0  0  0  0  0
    3.2626   -1.7533    3.0213 O   0  0  0  0  0  0  0  0  0  0  0  0
   -3.7734   -2.4923   -0.1681 H   0  0  0  0  0  0  0  0  0  0  0  0
   -2.0587   -2.8714   -0.2900 H   0  0  0  0  0  0  0  0  0  0  0  0
   -2.6740   -2.0288    1.1352 H   0  0  0  0  0  0  0  0  0  0  0  0
    6.5347    1.5654   -1.9083 H   0  0  0  0  0  0  0  0  0  0  0  0
    4.2228    1.8645   -2.7251 H   0  0  0  0  0  0  0  0  0  0  0  0
    6.9709    0.3127    0.2036 H   0  0  0  0  0  0  0  0  0  0  0  0
    2.3020    0.9355   -1.4731 H   0  0  0  0  0  0  0  0  0  0  0  0
   -4.3876   -0.5174    1.4461 H   0  0  0  0  0  0  0  0  0  0  0  0
   -3.0974    1.3870   -2.2129 H   0  0  0  0  0  0  0  0  0  0  0  0
   -6.0813    1.2262    1.7465 H   0  0  0  0  0  0  0  0  0  0  0  0
   -4.8089    3.1336   -1.8935 H   0  0  0  0  0  0  0  0  0  0  0  0
    0.2881   -2.5042    0.3887 H   0  0  0  0  0  0  0  0  0  0  0  0
    1.6642   -2.1433   -0.6294 H   0  0  0  0  0  0  0  0  0  0  0  0
    0.9217    1.3117    0.3681 H   0  0  0  0  0  0  0  0  0  0  0  0
    0.7203    1.0387    2.0865 H   0  0  0  0  0  0  0  0  0  0  0  0
    0.4829   -0.2941   -1.6877 H   0  0  0  0  0  0  0  0  0  0  0  0
   -0.4826   -1.7300   -1.7829 H   0  0  0  0  0  0  0  0  0  0  0  0
   -1.2588   -0.3877    1.6555 H   0  0  0  0  0  0  0  0  0  0  0  0
   -1.4612    1.2476    1.0253 H   0  0  0  0  0  0  0  0  0  0  0  0
   -2.6275   -1.0033   -1.7429 H   0  0  0  0  0  0  0  0  0  0  0  0
    1.1267   -1.2631    1.9660 H   0  0  0  0  0  0  0  0  0  0  0  0
    4.1219   -1.9307    3.4462 H   0  0  0  0  0  0  0  0  0  0  0  0
  1 14  1  0
  2  3  2  0
  2  4  1  0
  3  5  1  0
  4 18  2  0
  5 19  2  0
  6  8  2  0
  6 15  1  0
  7  9  1  0
  7 15  2  0
  8 16  1  0
  9 16  2  0
 10 12  1  0
 10 17  1  0
 11 13  1  0
 11 17  1  0
 12 23  1  0
 13 23  1  0
 14 15  1  0
 14 23  1  0
 16 21  1  0
 17 24  1  0
 18 19  1  0
 18 22  1  0
 19 24  1  0
 20 22  2  0
 20 24  1  0
 20 25  1  0
  1 26  1  0
  1 27  1  0
  1 28  1  0
  2 29  1  0
  3 30  1  0
  4 31  1  0
  5 32  1  0
  6 33  1  0
  7 34  1  0
  8 35  1  0
  9 36  1  0
 10 37  1  0
 10 38  1  0
 11 39  1  0
 11 40  1  0
 12 41  1  0
 12 42  1  0
 13 43  1  0
 13 44  1  0
 14 45  1  0
 17 46  1  0
 25 47  1  0
M  END
