
     RDKit          3D

 45 49  0  0  0  0  0  0  0  0999 V2000
    4.4418    1.5750    1.2540 C   0  0  0  0  0  0  0  0  0  0  0  0
    3.6720    1.3277    0.1851 C   0  0  0  0  0  0  0  0  0  0  0  0
   -1.1123    2.6099    1.7105 C   0  0  0  0  0  0  0  0  0  0  0  0
   -2.3951    3.0412    1.2773 C   0  0  0  0  0  0  0  0  0  0  0  0
   -1.2821   -3.3431   -0.6963 C   0  0  0  0  0  0  0  0  0  0  0  0
    0.0655   -2.7494   -0.2065 C   0  0  0  0  0  0  0  0  0  0  0  0
   -0.2422   -0.1240   -1.6697 C   0  0  0  0  0  0  0  0  0  0  0  0
    3.3035   -0.0440   -0.2950 C   0  0  0  0  0  0  0  0  0  0  0  0
    1.1581    0.4564   -1.3998 C   0  0  0  0  0  0  0  0  0  0  0  0
    0.7301    0.7771    1.6559 C   0  0  0  0  0  0  0  0  0  0  0  0
   -0.5714    1.4202    1.2277 C   0  0  0  0  0  0  0  0  0  0  0  0
   -3.1597    2.2728    0.3884 C   0  0  0  0  0  0  0  0  0  0  0  0
   -2.2358   -2.3165   -1.3337 C   0  0  0  0  0  0  0  0  0  0  0  0
    1.1496   -0.5458    0.8598 C   0  0  0  0  0  0  0  0  0  0  0  0
   -1.3564    0.7354    0.3281 C   0  0  0  0  0  0  0  0  0  0  0  0
   -2.6307    1.0942   -0.0657 C   0  0  0  0  0  0  0  0  0  0  0  0
   -2.4059   -1.0253   -0.5310 C   0  0  0  0  0  0  0  0  0  0  0  0
   -0.9814   -0.5129   -0.3555 C   0  0  0  0  0  0  0  0  0  0  0  0
   -0.1257   -1.4062    0.5389 C   0  0  0  0  0  0  0  0  0  0  0  0
    1.8785   -0.3401   -0.4083 N   0  0  0  0  0  0  0  0  0  0  0  0
   -4.3990    2.6892    0.0205 O   0  0  0  0  0  0  0  0  0  0  0  0
   -2.8515   -2.5550   -2.3696 O   0  0  0  0  0  0  0  0  0  0  0  0
   -0.8117   -1.7427    1.7559 O   0  0  0  0  0  0  0  0  0  0  0  0
   -3.2038    0.1274   -0.8790 O   0  0  0  0  0  0  0  0  0  0  0  0
    4.6830    2.5949    1.5385 H   0  0  0  0  0  0  0  0  0  0  0  0
    4.8474    0.7750    1.8653 H   0  0  0  0  0  0  0  0  0  0  0  0
    3.3074    2.1694   -0.3988 H   0  0  0  0  0  0  0  0  0  0  0  0
   -0.5644    3.2133    2.4301 H   0  0  0  0  0  0  0  0  0  0  0  0
   -2.8038    3.9733    1.6604 H   0  0  0  0  0  0  0  0  0  0  0  0
   -1.0831   -4.1359   -1.4256 H   0  0  0  0  0  0  0  0  0  0  0  0
   -1.8163   -3.7964    0.1468 H   0  0  0  0  0  0  0  0  0  0  0  0
    0.7287   -2.6389   -1.0710 H   0  0  0  0  0  0  0  0  0  0  0  0
    0.5427   -3.4816    0.4565 H   0  0  0  0  0  0  0  0  0  0  0  0
   -0.1333   -0.9991   -2.3214 H   0  0  0  0  0  0  0  0  0  0  0  0
   -0.8157    0.6065   -2.2557 H   0  0  0  0  0  0  0  0  0  0  0  0
    3.7644   -0.1824   -1.2819 H   0  0  0  0  0  0  0  0  0  0  0  0
    3.7746   -0.8075    0.3376 H   0  0  0  0  0  0  0  0  0  0  0  0
    1.7053    0.4588   -2.3508 H   0  0  0  0  0  0  0  0  0  0  0  0
    1.0751    1.5042   -1.0891 H   0  0  0  0  0  0  0  0  0  0  0  0
    0.6122    0.4928    2.7102 H   0  0  0  0  0  0  0  0  0  0  0  0
    1.5239    1.5253    1.6236 H   0  0  0  0  0  0  0  0  0  0  0  0
    1.7851   -1.1328    1.5365 H   0  0  0  0  0  0  0  0  0  0  0  0
   -2.8490   -1.3842    0.4143 H   0  0  0  0  0  0  0  0  0  0  0  0
   -4.7421    2.0072   -0.5878 H   0  0  0  0  0  0  0  0  0  0  0  0
   -0.1765   -2.1832    2.3489 H   0  0  0  0  0  0  0  0  0  0  0  0
  1  2  2  3
  2  8  1  0
  3  4  2  0
  3 11  1  0
  4 12  1  0
  5  6  1  0
  5 13  1  0
  6 19  1  0
  7  9  1  0
  7 18  1  0
  8 20  1  0
  9 20  1  0
 10 11  1  0
 10 14  1  0
 11 15  2  0
 12 16  2  0
 12 21  1  0
 13 17  1  0
 13 22  2  0
 14 19  1  0
 14 20  1  0
 15 16  1  0
 15 18  1  0
 16 24  1  0
 17 18  1  0
 17 24  1  0
 18 19  1  0
 19 23  1  0
  1 25  1  0
  1 26  1  0
  2 27  1  0
  3 28  1  0
  4 29  1  0
  5 30  1  0
  5 31  1  0
  6 32  1  0
  6 33  1  0
  7 34  1  0
  7 35  1  0
  8 36  1  0
  8 37  1  0
  9 38  1  0
  9 39  1  0
 10 40  1  0
 10 41  1  0
 14 42  1  0
 17 43  1  0
 21 44  1  0
 23 45  1  0
M  END
