
     RDKit          3D

 51 53  0  0  0  0  0  0  0  0999 V2000
   -3.8077   -4.4118   -1.2683 C   0  0  0  0  0  0  0  0  0  0  0  0
    7.0938   -1.6549   -1.7834 C   0  0  0  0  0  0  0  0  0  0  0  0
   -3.7538   -3.1886   -0.3660 C   0  0  0  0  0  0  0  0  0  0  0  0
    5.7815   -1.8507   -1.0455 C   0  0  0  0  0  0  0  0  0  0  0  0
    2.1279   -1.4327    1.0716 C   0  0  0  0  0  0  0  0  0  0  0  0
    2.4773    0.9509    1.0432 C   0  0  0  0  0  0  0  0  0  0  0  0
   -3.4250    3.8368   -0.5514 C   0  0  0  0  0  0  0  0  0  0  0  0
    3.3246   -1.6195    0.3689 C   0  0  0  0  0  0  0  0  0  0  0  0
    3.6697    0.7611    0.3408 C   0  0  0  0  0  0  0  0  0  0  0  0
   -2.9170    2.5378   -0.6688 C   0  0  0  0  0  0  0  0  0  0  0  0
   -2.5428   -1.1525    0.1088 C   0  0  0  0  0  0  0  0  0  0  0  0
   -1.4053   -0.2308   -0.3427 C   0  0  0  0  0  0  0  0  0  0  0  0
    0.3967    0.0432    2.1800 C   0  0  0  0  0  0  0  0  0  0  0  0
   -2.0874    4.2460    1.4591 C   0  0  0  0  0  0  0  0  0  0  0  0
    1.6822   -0.1450    1.4030 C   0  0  0  0  0  0  0  0  0  0  0  0
   -3.0142    4.6750    0.4967 C   0  0  0  0  0  0  0  0  0  0  0  0
    4.0994   -0.5216   -0.0026 C   0  0  0  0  0  0  0  0  0  0  0  0
   -1.5776    2.9459    1.3427 C   0  0  0  0  0  0  0  0  0  0  0  0
   -1.9910    2.1260    0.2981 C   0  0  0  0  0  0  0  0  0  0  0  0
   -0.5120    1.0988    1.6209 C   0  0  0  0  0  0  0  0  0  0  0  0
   -2.6299   -2.3353   -0.7545 N   0  0  0  0  0  0  0  0  0  0  0  0
   -0.6782    2.2989    2.1453 N   0  0  0  0  0  0  0  0  0  0  0  0
   -1.2997    0.9493    0.4977 N   0  0  0  0  0  0  0  0  0  0  0  0
   -3.5667    6.0318    0.5930 N   0  0  0  0  0  4  0  0  0  0  0  0
   -3.1823    6.7490    1.5275 O   0  0  0  0  0  1  0  0  0  0  0  0
   -4.3886    6.3816   -0.2667 O   0  0  0  0  0  0  0  0  0  0  0  0
    5.2812   -0.5638   -0.6886 O   0  0  0  0  0  0  0  0  0  0  0  0
   -2.8933   -5.0087   -1.1836 H   0  0  0  0  0  0  0  0  0  0  0  0
   -4.6528   -5.0491   -0.9890 H   0  0  0  0  0  0  0  0  0  0  0  0
   -3.9343   -4.1246   -2.3177 H   0  0  0  0  0  0  0  0  0  0  0  0
    6.9450   -1.0417   -2.6784 H   0  0  0  0  0  0  0  0  0  0  0  0
    7.8161   -1.1271   -1.1518 H   0  0  0  0  0  0  0  0  0  0  0  0
    7.5210   -2.6166   -2.0810 H   0  0  0  0  0  0  0  0  0  0  0  0
   -4.6969   -2.6379   -0.4572 H   0  0  0  0  0  0  0  0  0  0  0  0
   -3.6470   -3.5147    0.6749 H   0  0  0  0  0  0  0  0  0  0  0  0
    5.9627   -2.4515   -0.1468 H   0  0  0  0  0  0  0  0  0  0  0  0
    5.0732   -2.3643   -1.7059 H   0  0  0  0  0  0  0  0  0  0  0  0
    1.5489   -2.3074    1.3600 H   0  0  0  0  0  0  0  0  0  0  0  0
    2.1748    1.9635    1.3076 H   0  0  0  0  0  0  0  0  0  0  0  0
   -4.1455    4.1808   -1.2926 H   0  0  0  0  0  0  0  0  0  0  0  0
    3.6242   -2.6349    0.1329 H   0  0  0  0  0  0  0  0  0  0  0  0
    4.2717    1.6233    0.0639 H   0  0  0  0  0  0  0  0  0  0  0  0
   -3.2332    1.8874   -1.4786 H   0  0  0  0  0  0  0  0  0  0  0  0
   -2.3802   -1.4596    1.1492 H   0  0  0  0  0  0  0  0  0  0  0  0
   -3.4896   -0.5992    0.0757 H   0  0  0  0  0  0  0  0  0  0  0  0
   -1.5597    0.1067   -1.3743 H   0  0  0  0  0  0  0  0  0  0  0  0
   -0.4458   -0.7547   -0.3265 H   0  0  0  0  0  0  0  0  0  0  0  0
   -0.1542   -0.9034    2.2396 H   0  0  0  0  0  0  0  0  0  0  0  0
    0.6618    0.3061    3.2119 H   0  0  0  0  0  0  0  0  0  0  0  0
   -1.7573    4.8764    2.2778 H   0  0  0  0  0  0  0  0  0  0  0  0
   -1.7645   -2.8738   -0.7039 H   0  0  0  0  0  0  0  0  0  0  0  0
  1  3  1  0
  2  4  1  0
  3 21  1  0
  4 27  1  0
  5  8  2  0
  5 15  1  0
  6  9  1  0
  6 15  2  0
  7 10  2  0
  7 16  1  0
  8 17  1  0
  9 17  2  0
 10 19  1  0
 11 12  1  0
 11 21  1  0
 12 23  1  0
 13 15  1  0
 13 20  1  0
 14 16  2  0
 14 18  1  0
 16 24  1  0
 17 27  1  0
 18 19  2  0
 18 22  1  0
 19 23  1  0
 20 22  2  0
 20 23  1  0
 24 25  1  0
 24 26  2  0
  1 28  1  0
  1 29  1  0
  1 30  1  0
  2 31  1  0
  2 32  1  0
  2 33  1  0
  3 34  1  0
  3 35  1  0
  4 36  1  0
  4 37  1  0
  5 38  1  0
  6 39  1  0
  7 40  1  0
  8 41  1  0
  9 42  1  0
 10 43  1  0
 11 44  1  0
 11 45  1  0
 12 46  1  0
 12 47  1  0
 13 48  1  0
 13 49  1  0
 14 50  1  0
 21 51  1  0
M  CHG  2  24   1  25  -1
M  END
