
     RDKit          3D

 52 54  0  0  0  0  0  0  0  0999 V2000
   -4.6694   -0.0870   -3.0190 C   0  0  0  0  0  0  0  0  0  0  0  0
   -6.4926   -0.8395    2.4929 C   0  0  0  0  0  0  0  0  0  0  0  0
   -0.4278   -0.8528    1.9785 C   0  0  0  0  0  0  0  0  0  0  0  0
    7.6623   -0.1849   -2.6854 C   0  0  0  0  0  0  0  0  0  0  0  0
    6.0717    0.2846    2.5090 C   0  0  0  0  0  0  0  0  0  0  0  0
   -4.2705    1.1424   -2.2170 C   0  0  0  0  0  0  0  0  0  0  0  0
   -5.7817    0.5048    2.4211 C   0  0  0  0  0  0  0  0  0  0  0  0
    3.5399    0.1779   -1.8482 C   0  0  0  0  0  0  0  0  0  0  0  0
    1.6977    0.4203   -0.1627 C   0  0  0  0  0  0  0  0  0  0  0  0
    4.8988    0.0605   -2.1557 C   0  0  0  0  0  0  0  0  0  0  0  0
    0.7047   -0.2496   -0.7700 C   0  0  0  0  0  0  0  0  0  0  0  0
    4.0766    0.2735    0.5014 C   0  0  0  0  0  0  0  0  0  0  0  0
    3.1157    0.2704   -0.5195 C   0  0  0  0  0  0  0  0  0  0  0  0
    5.8560    0.0446   -1.1375 C   0  0  0  0  0  0  0  0  0  0  0  0
    5.4413    0.1561    0.2045 C   0  0  0  0  0  0  0  0  0  0  0  0
   -0.6534   -0.0424   -0.4236 C   0  0  0  0  0  0  0  0  0  0  0  0
   -2.4618    0.0645    0.8540 C   0  0  0  0  0  0  0  0  0  0  0  0
   -2.7342    0.4274   -0.4277 C   0  0  0  0  0  0  0  0  0  0  0  0
   -3.4413    0.0729    1.8851 C   0  0  0  0  0  0  0  0  0  0  0  0
   -5.0307    0.8177    0.1105 C   0  0  0  0  0  0  0  0  0  0  0  0
   -1.6357    0.3404   -1.2222 N   0  0  0  0  0  0  0  0  0  0  0  0
   -1.1360   -0.2871    0.8530 N   0  0  0  0  0  0  0  0  0  0  0  0
   -3.9920    0.8161   -0.8230 N   0  0  0  0  0  0  0  0  0  0  0  0
   -4.7012    0.4922    1.4415 N   0  0  0  0  0  0  0  0  0  0  0  0
   -3.1968   -0.2583    3.0419 O   0  0  0  0  0  0  0  0  0  0  0  0
   -6.1901    1.0893   -0.2162 O   0  0  0  0  0  0  0  0  0  0  0  0
    7.2083   -0.0682   -1.3448 O   0  0  0  0  0  0  0  0  0  0  0  0
    6.4415    0.1394    1.1460 O   0  0  0  0  0  0  0  0  0  0  0  0
   -3.8686   -0.8337   -3.0201 H   0  0  0  0  0  0  0  0  0  0  0  0
   -4.8812    0.1885   -4.0567 H   0  0  0  0  0  0  0  0  0  0  0  0
   -5.5644   -0.5582   -2.6000 H   0  0  0  0  0  0  0  0  0  0  0  0
   -6.9302   -1.1074    1.5258 H   0  0  0  0  0  0  0  0  0  0  0  0
   -5.7993   -1.6377    2.7775 H   0  0  0  0  0  0  0  0  0  0  0  0
   -7.2968   -0.8046    3.2343 H   0  0  0  0  0  0  0  0  0  0  0  0
    0.4488   -1.4064    1.6364 H   0  0  0  0  0  0  0  0  0  0  0  0
   -1.0840   -1.5536    2.5003 H   0  0  0  0  0  0  0  0  0  0  0  0
   -0.1309   -0.0361    2.6408 H   0  0  0  0  0  0  0  0  0  0  0  0
    7.4110    0.7083   -3.2667 H   0  0  0  0  0  0  0  0  0  0  0  0
    7.2687   -1.0903   -3.1589 H   0  0  0  0  0  0  0  0  0  0  0  0
    8.7531   -0.2698   -2.6628 H   0  0  0  0  0  0  0  0  0  0  0  0
    5.5798    1.2468    2.6854 H   0  0  0  0  0  0  0  0  0  0  0  0
    5.4426   -0.5489    2.8381 H   0  0  0  0  0  0  0  0  0  0  0  0
    6.9874    0.2655    3.1080 H   0  0  0  0  0  0  0  0  0  0  0  0
   -5.0819    1.8784   -2.2583 H   0  0  0  0  0  0  0  0  0  0  0  0
   -3.3895    1.6187   -2.6625 H   0  0  0  0  0  0  0  0  0  0  0  0
   -5.3793    0.7558    3.4091 H   0  0  0  0  0  0  0  0  0  0  0  0
   -6.5046    1.2874    2.1646 H   0  0  0  0  0  0  0  0  0  0  0  0
    2.8211    0.2089   -2.6644 H   0  0  0  0  0  0  0  0  0  0  0  0
    1.4892    1.1217    0.6424 H   0  0  0  0  0  0  0  0  0  0  0  0
    5.1753   -0.0101   -3.2023 H   0  0  0  0  0  0  0  0  0  0  0  0
    0.8957   -0.9163   -1.6053 H   0  0  0  0  0  0  0  0  0  0  0  0
    3.7386    0.3600    1.5286 H   0  0  0  0  0  0  0  0  0  0  0  0
  1  6  1  0
  2  7  1  0
  3 22  1  0
  4 27  1  0
  5 28  1  0
  6 23  1  0
  7 24  1  0
  8 10  2  0
  8 13  1  0
  9 11  2  3
  9 13  1  0
 10 14  1  0
 11 16  1  0
 12 13  2  0
 12 15  1  0
 14 15  2  0
 14 27  1  0
 15 28  1  0
 16 21  2  0
 16 22  1  0
 17 18  2  0
 17 19  1  0
 17 22  1  0
 18 21  1  0
 18 23  1  0
 19 24  1  0
 19 25  2  0
 20 23  1  0
 20 24  1  0
 20 26  2  0
  1 29  1  0
  1 30  1  0
  1 31  1  0
  2 32  1  0
  2 33  1  0
  2 34  1  0
  3 35  1  0
  3 36  1  0
  3 37  1  0
  4 38  1  0
  4 39  1  0
  4 40  1  0
  5 41  1  0
  5 42  1  0
  5 43  1  0
  6 44  1  0
  6 45  1  0
  7 46  1  0
  7 47  1  0
  8 48  1  0
  9 49  1  0
 10 50  1  0
 11 51  1  0
 12 52  1  0
M  END
