
     RDKit          3D

 50 53  0  0  0  0  0  0  0  0999 V2000
   -3.3537   -2.3229    0.6366 C   0  0  0  0  0  0  0  0  0  0  0  0
    2.1009    3.5473   -0.2420 C   0  0  0  0  0  0  0  0  0  0  0  0
   -3.8058   -1.0443    1.3322 C   0  0  0  0  0  0  0  0  0  0  0  0
    2.5130   -3.7520   -1.4518 C   0  0  0  0  0  0  0  0  0  0  0  0
    1.7994   -2.5837   -1.7576 C   0  0  0  0  0  0  0  0  0  0  0  0
    3.4215   -3.8103   -0.3795 C   0  0  0  0  0  0  0  0  0  0  0  0
    0.0505   -0.0031   -1.5510 C   0  0  0  0  0  0  0  0  0  0  0  0
    2.6529    0.8838    0.8660 C   0  0  0  0  0  0  0  0  0  0  0  0
    4.1797   -1.0328    1.8528 C   0  0  0  0  0  0  0  0  0  0  0  0
    0.0291    2.3428   -0.6000 C   0  0  0  0  0  0  0  0  0  0  0  0
   -4.3889    1.3951    1.1148 C   0  0  0  0  0  0  0  0  0  0  0  0
    3.2619   -0.4774    0.9919 C   0  0  0  0  0  0  0  0  0  0  0  0
   -0.6751    1.3197   -1.5115 C   0  0  0  0  0  0  0  0  0  0  0  0
   -3.7972    0.1737    0.3938 C   0  0  0  0  0  0  0  0  0  0  0  0
    1.9821   -1.4281   -0.9952 C   0  0  0  0  0  0  0  0  0  0  0  0
    1.3214   -0.1122   -1.1226 C   0  0  0  0  0  0  0  0  0  0  0  0
    3.5879   -2.6447    0.3729 C   0  0  0  0  0  0  0  0  0  0  0  0
    2.1440    1.1068   -0.6129 C   0  0  0  0  0  0  0  0  0  0  0  0
    2.8909   -1.4880    0.0726 C   0  0  0  0  0  0  0  0  0  0  0  0
   -2.0982    1.1422   -1.0080 C   0  0  0  0  0  0  0  0  0  0  0  0
    4.3699   -2.3451    1.4681 N   0  0  0  0  0  0  0  0  0  0  0  0
   -2.4027    0.4241    0.0107 N   0  0  0  0  0  0  0  0  0  0  0  0
    1.4694    2.4047   -0.8866 N   0  0  0  0  0  0  0  0  0  0  0  0
   -4.7081    2.4038    0.1485 O   0  0  0  0  0  0  0  0  0  0  0  0
   -2.9872    1.8633   -1.7181 O   0  0  0  0  0  0  0  0  0  0  0  0
   -3.4266   -3.1712    1.3247 H   0  0  0  0  0  0  0  0  0  0  0  0
   -3.9817   -2.5378   -0.2337 H   0  0  0  0  0  0  0  0  0  0  0  0
   -2.3139   -2.2522    0.3027 H   0  0  0  0  0  0  0  0  0  0  0  0
    3.1712    3.5815   -0.4726 H   0  0  0  0  0  0  0  0  0  0  0  0
    1.9747    3.5408    0.8462 H   0  0  0  0  0  0  0  0  0  0  0  0
    1.6724    4.4816   -0.6223 H   0  0  0  0  0  0  0  0  0  0  0  0
   -4.8203   -1.2029    1.7174 H   0  0  0  0  0  0  0  0  0  0  0  0
   -3.1567   -0.8613    2.1976 H   0  0  0  0  0  0  0  0  0  0  0  0
    2.3583   -4.6399   -2.0616 H   0  0  0  0  0  0  0  0  0  0  0  0
    1.1097   -2.5825   -2.5964 H   0  0  0  0  0  0  0  0  0  0  0  0
    3.9639   -4.7216   -0.1534 H   0  0  0  0  0  0  0  0  0  0  0  0
   -0.5158   -0.8702   -1.8770 H   0  0  0  0  0  0  0  0  0  0  0  0
    3.4044    1.6362    1.1300 H   0  0  0  0  0  0  0  0  0  0  0  0
    1.8176    0.9712    1.5711 H   0  0  0  0  0  0  0  0  0  0  0  0
    4.7168   -0.6238    2.6976 H   0  0  0  0  0  0  0  0  0  0  0  0
   -0.4294    3.3243   -0.7814 H   0  0  0  0  0  0  0  0  0  0  0  0
   -0.1424    2.1153    0.4614 H   0  0  0  0  0  0  0  0  0  0  0  0
   -5.3185    1.1345    1.6306 H   0  0  0  0  0  0  0  0  0  0  0  0
   -3.6818    1.8169    1.8367 H   0  0  0  0  0  0  0  0  0  0  0  0
   -0.7166    1.7025   -2.5398 H   0  0  0  0  0  0  0  0  0  0  0  0
   -4.3947   -0.0601   -0.4974 H   0  0  0  0  0  0  0  0  0  0  0  0
    3.0456    1.1293   -1.2460 H   0  0  0  0  0  0  0  0  0  0  0  0
    4.9923   -2.9980    1.9228 H   0  0  0  0  0  0  0  0  0  0  0  0
   -5.0629    3.1596    0.6540 H   0  0  0  0  0  0  0  0  0  0  0  0
   -3.8238    1.9653   -1.2207 H   0  0  0  0  0  0  0  0  0  0  0  0
  1  3  1  0
  2 23  1  0
  3 14  1  0
  4  5  2  0
  4  6  1  0
  5 15  1  0
  6 17  2  0
  7 13  1  0
  7 16  2  0
  8 12  1  0
  8 18  1  0
  9 12  2  0
  9 21  1  0
 10 13  1  0
 10 23  1  0
 11 14  1  0
 11 24  1  0
 12 19  1  0
 13 20  1  0
 14 22  1  0
 15 16  1  0
 15 19  2  0
 16 18  1  0
 17 19  1  0
 17 21  1  0
 18 23  1  0
 20 22  2  3
 20 25  1  0
  1 26  1  0
  1 27  1  0
  1 28  1  0
  2 29  1  0
  2 30  1  0
  2 31  1  0
  3 32  1  0
  3 33  1  0
  4 34  1  0
  5 35  1  0
  6 36  1  0
  7 37  1  0
  8 38  1  0
  8 39  1  0
  9 40  1  0
 10 41  1  0
 10 42  1  0
 11 43  1  0
 11 44  1  0
 13 45  1  0
 14 46  1  0
 18 47  1  0
 21 48  1  0
 24 49  1  0
 25 50  1  0
M  END
