
     RDKit          3D

 50 54  0  0  0  0  0  0  0  0999 V2000
    5.1928   -2.8401    0.4390 C   0  0  0  0  0  0  0  0  0  0  0  0
   -4.4698   -0.7820    0.6561 C   0  0  0  0  0  0  0  0  0  0  0  0
    2.3008    5.0890   -0.1990 C   0  0  0  0  0  0  0  0  0  0  0  0
   -1.3329    3.0812   -1.2118 C   0  0  0  0  0  0  0  0  0  0  0  0
   -0.6752   -2.6194   -0.5013 C   0  0  0  0  0  0  0  0  0  0  0  0
   -0.1336    3.7751   -0.8762 C   0  0  0  0  0  0  0  0  0  0  0  0
    0.8613   -2.8421   -0.3746 C   0  0  0  0  0  0  0  0  0  0  0  0
   -0.8051   -0.3754    1.5207 C   0  0  0  0  0  0  0  0  0  0  0  0
   -2.3270   -0.1771    1.5887 C   0  0  0  0  0  0  0  0  0  0  0  0
   -2.6180    0.8230   -1.3186 C   0  0  0  0  0  0  0  0  0  0  0  0
    3.7485   -2.8160    0.8350 C   0  0  0  0  0  0  0  0  0  0  0  0
   -1.4568    1.7232   -0.9473 C   0  0  0  0  0  0  0  0  0  0  0  0
   -1.0283   -1.1656   -0.8822 C   0  0  0  0  0  0  0  0  0  0  0  0
   -2.5085   -0.6924   -0.8147 C   0  0  0  0  0  0  0  0  0  0  0  0
    0.9799    3.1224   -0.3027 C   0  0  0  0  0  0  0  0  0  0  0  0
    1.6748   -1.7445    0.3869 C   0  0  0  0  0  0  0  0  0  0  0  0
   -0.3613    1.1451   -0.3494 C   0  0  0  0  0  0  0  0  0  0  0  0
    0.8443    1.7733   -0.0670 C   0  0  0  0  0  0  0  0  0  0  0  0
    1.2229   -0.3826   -0.1359 C   0  0  0  0  0  0  0  0  0  0  0  0
   -0.2769   -0.2617    0.0675 C   0  0  0  0  0  0  0  0  0  0  0  0
   -3.0229   -0.9475    0.5506 N   0  0  0  0  0  0  0  0  0  0  0  0
    3.2575   -3.5263    1.7005 O   0  0  0  0  0  0  0  0  0  0  0  0
    2.1772    3.6900    0.0127 O   0  0  0  0  0  0  0  0  0  0  0  0
    3.0776   -1.9012    0.0855 O   0  0  0  0  0  0  0  0  0  0  0  0
    1.7847    0.8516    0.4002 O   0  0  0  0  0  0  0  0  0  0  0  0
    5.6362   -1.8532    0.5933 H   0  0  0  0  0  0  0  0  0  0  0  0
    5.2852   -3.1449   -0.6064 H   0  0  0  0  0  0  0  0  0  0  0  0
    5.7276   -3.5623    1.0625 H   0  0  0  0  0  0  0  0  0  0  0  0
   -4.7885    0.2597    0.5494 H   0  0  0  0  0  0  0  0  0  0  0  0
   -4.8216   -1.1422    1.6295 H   0  0  0  0  0  0  0  0  0  0  0  0
   -4.9861   -1.3820   -0.1012 H   0  0  0  0  0  0  0  0  0  0  0  0
    2.2081    5.3366   -1.2616 H   0  0  0  0  0  0  0  0  0  0  0  0
    3.3013    5.3900    0.1263 H   0  0  0  0  0  0  0  0  0  0  0  0
    1.5740    5.6463    0.4014 H   0  0  0  0  0  0  0  0  0  0  0  0
   -2.1463    3.6258   -1.6856 H   0  0  0  0  0  0  0  0  0  0  0  0
   -1.0762   -3.3024   -1.2597 H   0  0  0  0  0  0  0  0  0  0  0  0
   -1.1472   -2.9107    0.4433 H   0  0  0  0  0  0  0  0  0  0  0  0
   -0.0988    4.8368   -1.1043 H   0  0  0  0  0  0  0  0  0  0  0  0
    1.0444   -3.8191    0.0883 H   0  0  0  0  0  0  0  0  0  0  0  0
    1.2729   -2.9267   -1.3901 H   0  0  0  0  0  0  0  0  0  0  0  0
   -0.3235    0.3535    2.1856 H   0  0  0  0  0  0  0  0  0  0  0  0
   -0.5747   -1.3595    1.9437 H   0  0  0  0  0  0  0  0  0  0  0  0
   -2.6645   -0.5065    2.5795 H   0  0  0  0  0  0  0  0  0  0  0  0
   -2.5714    0.8901    1.5214 H   0  0  0  0  0  0  0  0  0  0  0  0
   -2.6556    0.7912   -2.4157 H   0  0  0  0  0  0  0  0  0  0  0  0
   -3.5556    1.2774   -0.9838 H   0  0  0  0  0  0  0  0  0  0  0  0
   -0.6862   -1.0156   -1.9178 H   0  0  0  0  0  0  0  0  0  0  0  0
   -3.0882   -1.3135   -1.5103 H   0  0  0  0  0  0  0  0  0  0  0  0
    1.5312   -1.8038    1.4712 H   0  0  0  0  0  0  0  0  0  0  0  0
    1.4979   -0.3651   -1.2071 H   0  0  0  0  0  0  0  0  0  0  0  0
  1 11  1  0
  2 21  1  0
  3 23  1  0
  4  6  2  0
  4 12  1  0
  5  7  1  0
  5 13  1  0
  6 15  1  0
  7 16  1  0
  8  9  1  0
  8 20  1  0
  9 21  1  0
 10 12  1  0
 10 14  1  0
 11 22  2  0
 11 24  1  0
 12 17  2  0
 13 14  1  0
 13 20  1  0
 14 21  1  0
 15 18  2  0
 15 23  1  0
 16 19  1  0
 16 24  1  0
 17 18  1  0
 17 20  1  0
 18 25  1  0
 19 20  1  0
 19 25  1  0
  1 26  1  0
  1 27  1  0
  1 28  1  0
  2 29  1  0
  2 30  1  0
  2 31  1  0
  3 32  1  0
  3 33  1  0
  3 34  1  0
  4 35  1  0
  5 36  1  0
  5 37  1  0
  6 38  1  0
  7 39  1  0
  7 40  1  0
  8 41  1  0
  8 42  1  0
  9 43  1  0
  9 44  1  0
 10 45  1  0
 10 46  1  0
 13 47  1  0
 14 48  1  0
 16 49  1  0
 19 50  1  0
M  END
