
     RDKit          3D

 56 58  0  0  0  0  0  0  0  0999 V2000
   -1.2535    0.8588   -1.8372 C   0  0  0  0  0  0  0  0  0  0  0  0
    6.5356   -0.1523    2.7910 C   0  0  0  0  0  0  0  0  0  0  0  0
    5.7964    1.9454   -1.5780 C   0  0  0  0  0  0  0  0  0  0  0  0
   -5.5194   -2.7329   -1.8585 C   0  0  0  0  0  0  0  0  0  0  0  0
   -4.3983    3.6679    1.6854 C   0  0  0  0  0  0  0  0  0  0  0  0
    0.7330   -1.0478   -0.5178 C   0  0  0  0  0  0  0  0  0  0  0  0
    1.9306   -1.9995   -0.6319 C   0  0  0  0  0  0  0  0  0  0  0  0
   -2.2798   -0.7012   -0.0843 C   0  0  0  0  0  0  0  0  0  0  0  0
   -3.8950    1.1506    0.4951 C   0  0  0  0  0  0  0  0  0  0  0  0
   -6.0197   -0.2013   -0.7047 C   0  0  0  0  0  0  0  0  0  0  0  0
    3.1719   -2.2832    1.5292 C   0  0  0  0  0  0  0  0  0  0  0  0
   -1.5357   -0.5953   -1.4377 C   0  0  0  0  0  0  0  0  0  0  0  0
   -3.6787   -0.1089   -0.1005 C   0  0  0  0  0  0  0  0  0  0  0  0
   -6.2195    1.0503   -0.1116 C   0  0  0  0  0  0  0  0  0  0  0  0
   -4.7536   -0.7877   -0.7029 C   0  0  0  0  0  0  0  0  0  0  0  0
   -5.1617    1.7406    0.4955 C   0  0  0  0  0  0  0  0  0  0  0  0
    3.9631   -0.7356    0.1789 C   0  0  0  0  0  0  0  0  0  0  0  0
    4.6988   -0.8304    1.3217 C   0  0  0  0  0  0  0  0  0  0  0  0
    4.2570    0.1928   -0.8574 C   0  0  0  0  0  0  0  0  0  0  0  0
    6.1632    0.9100    0.5890 C   0  0  0  0  0  0  0  0  0  0  0  0
   -7.8185    1.7144   -0.1552 Cl  0  0  0  0  0  0  0  0  0  0  0  0
   -0.3070   -1.4192   -1.4826 N   0  0  0  0  0  0  0  0  0  0  0  0
    4.2121   -1.7827    2.1645 N   0  0  0  0  0  0  0  0  0  0  0  0
    5.7900   -0.0282    1.5516 N   0  0  0  0  0  0  0  0  0  0  0  0
    5.3933    0.9621   -0.5916 N   0  0  0  0  0  0  0  0  0  0  0  0
    2.9786   -1.6738    0.3157 N   0  0  0  0  0  0  0  0  0  0  0  0
    3.5657    0.3031   -1.8657 O   0  0  0  0  0  0  0  0  0  0  0  0
    7.1216    1.6702    0.7555 O   0  0  0  0  0  0  0  0  0  0  0  0
   -4.4576   -2.0060   -1.2531 O   0  0  0  0  0  0  0  0  0  0  0  0
   -5.4528    2.9598    1.0482 O   0  0  0  0  0  0  0  0  0  0  0  0
   -0.6570    0.9056   -2.7553 H   0  0  0  0  0  0  0  0  0  0  0  0
   -2.1863    1.3967   -2.0363 H   0  0  0  0  0  0  0  0  0  0  0  0
   -0.7163    1.4014   -1.0525 H   0  0  0  0  0  0  0  0  0  0  0  0
    7.3900    0.5289    2.8230 H   0  0  0  0  0  0  0  0  0  0  0  0
    6.9042   -1.1786    2.8863 H   0  0  0  0  0  0  0  0  0  0  0  0
    5.8723    0.0790    3.6305 H   0  0  0  0  0  0  0  0  0  0  0  0
    5.6273    2.9448   -1.1640 H   0  0  0  0  0  0  0  0  0  0  0  0
    5.2415    1.8494   -2.5147 H   0  0  0  0  0  0  0  0  0  0  0  0
    6.8650    1.8336   -1.7888 H   0  0  0  0  0  0  0  0  0  0  0  0
   -5.1074   -3.6743   -2.2345 H   0  0  0  0  0  0  0  0  0  0  0  0
   -5.9343   -2.1869   -2.7120 H   0  0  0  0  0  0  0  0  0  0  0  0
   -6.2969   -2.9782   -1.1276 H   0  0  0  0  0  0  0  0  0  0  0  0
   -4.8109    4.6043    2.0731 H   0  0  0  0  0  0  0  0  0  0  0  0
   -4.0000    3.1033    2.5348 H   0  0  0  0  0  0  0  0  0  0  0  0
   -3.6074    3.9231    0.9725 H   0  0  0  0  0  0  0  0  0  0  0  0
    0.3463   -1.1042    0.5055 H   0  0  0  0  0  0  0  0  0  0  0  0
    1.0678   -0.0189   -0.6871 H   0  0  0  0  0  0  0  0  0  0  0  0
    2.3691   -1.9793   -1.6359 H   0  0  0  0  0  0  0  0  0  0  0  0
    1.6206   -3.0333   -0.4358 H   0  0  0  0  0  0  0  0  0  0  0  0
   -1.6978   -0.2124    0.7075 H   0  0  0  0  0  0  0  0  0  0  0  0
   -2.3559   -1.7537    0.2208 H   0  0  0  0  0  0  0  0  0  0  0  0
   -3.0472    1.6527    0.9513 H   0  0  0  0  0  0  0  0  0  0  0  0
   -6.8718   -0.6943   -1.1600 H   0  0  0  0  0  0  0  0  0  0  0  0
    2.5319   -3.0763    1.8963 H   0  0  0  0  0  0  0  0  0  0  0  0
   -2.1863   -1.0123   -2.2166 H   0  0  0  0  0  0  0  0  0  0  0  0
    0.0793   -1.3602   -2.4275 H   0  0  0  0  0  0  0  0  0  0  0  0
  1 12  1  0
  2 24  1  0
  3 25  1  0
  4 29  1  0
  5 30  1  0
  6  7  1  0
  6 22  1  0
  7 26  1  0
  8 12  1  0
  8 13  1  0
  9 13  2  0
  9 16  1  0
 10 14  1  0
 10 15  2  0
 11 23  2  0
 11 26  1  0
 12 22  1  0
 13 15  1  0
 14 16  2  0
 14 21  1  0
 15 29  1  0
 16 30  1  0
 17 18  2  0
 17 19  1  0
 17 26  1  0
 18 23  1  0
 18 24  1  0
 19 25  1  0
 19 27  2  0
 20 24  1  0
 20 25  1  0
 20 28  2  0
  1 31  1  0
  1 32  1  0
  1 33  1  0
  2 34  1  0
  2 35  1  0
  2 36  1  0
  3 37  1  0
  3 38  1  0
  3 39  1  0
  4 40  1  0
  4 41  1  0
  4 42  1  0
  5 43  1  0
  5 44  1  0
  5 45  1  0
  6 46  1  0
  6 47  1  0
  7 48  1  0
  7 49  1  0
  8 50  1  0
  8 51  1  0
  9 52  1  0
 10 53  1  0
 11 54  1  0
 12 55  1  0
 22 56  1  0
M  END
