
     RDKit          3D

 46 49  0  0  0  0  0  0  0  0999 V2000
    6.2010    1.2705    1.6441 C   0  0  0  0  0  0  0  0  0  0  0  0
    6.2792    0.5800   -0.7653 C   0  0  0  0  0  0  0  0  0  0  0  0
   -5.0165    2.7113   -0.2204 C   0  0  0  0  0  0  0  0  0  0  0  0
   -5.4204    2.4669    1.0946 C   0  0  0  0  0  0  0  0  0  0  0  0
   -3.9201    2.0326   -0.7579 C   0  0  0  0  0  0  0  0  0  0  0  0
   -4.7267    1.5445    1.8787 C   0  0  0  0  0  0  0  0  0  0  0  0
   -2.6253   -3.9065   -0.3133 C   0  0  0  0  0  0  0  0  0  0  0  0
   -1.3789   -3.3783    0.0289 C   0  0  0  0  0  0  0  0  0  0  0  0
   -3.3941   -1.6968   -0.9082 C   0  0  0  0  0  0  0  0  0  0  0  0
    0.1861    0.3324   -1.4987 C   0  0  0  0  0  0  0  0  0  0  0  0
    1.0959   -2.0954    1.0357 C   0  0  0  0  0  0  0  0  0  0  0  0
    5.4152    1.1729    0.3420 C   0  0  0  0  0  0  0  0  0  0  0  0
   -3.6228   -3.0661   -0.7910 C   0  0  0  0  0  0  0  0  0  0  0  0
   -3.2258    1.1086    0.0284 C   0  0  0  0  0  0  0  0  0  0  0  0
   -2.1500   -1.1438   -0.5526 C   0  0  0  0  0  0  0  0  0  0  0  0
   -3.6338    0.8704    1.3431 C   0  0  0  0  0  0  0  0  0  0  0  0
   -1.1224   -2.0005   -0.1102 C   0  0  0  0  0  0  0  0  0  0  0  0
    0.8370   -0.4794   -0.4395 C   0  0  0  0  0  0  0  0  0  0  0  0
    2.1139   -0.4429    0.1084 C   0  0  0  0  0  0  0  0  0  0  0  0
   -2.0773    0.3480   -0.5324 C   0  0  0  0  0  0  0  0  0  0  0  0
    3.2061    0.4809   -0.2227 C   0  0  0  0  0  0  0  0  0  0  0  0
   -5.1536   -3.7180   -1.2259 Cl  0  0  0  0  0  0  0  0  0  0  0  0
   -2.9796   -0.0146    2.1106 F   0  0  0  0  0  0  0  0  0  0  0  0
    2.2461   -1.4657    1.0312 N   0  0  0  0  0  0  0  0  0  0  0  0
    0.1868   -1.5333    0.1721 N   0  0  0  0  0  0  0  0  0  0  0  0
   -1.0180    1.0107   -0.9659 N   0  0  0  0  0  4  0  0  0  0  0  0
    3.1482    1.2985   -1.1344 O   0  0  0  0  0  0  0  0  0  0  0  0
   -0.9886    2.2884   -0.9291 O   0  0  0  0  0  1  0  0  0  0  0  0
    4.2910    0.3121    0.5891 O   0  0  0  0  0  0  0  0  0  0  0  0
    5.5684    1.6779    2.4403 H   0  0  0  0  0  0  0  0  0  0  0  0
    7.0785    1.9146    1.5324 H   0  0  0  0  0  0  0  0  0  0  0  0
    6.5309    0.2812    1.9803 H   0  0  0  0  0  0  0  0  0  0  0  0
    7.1705    1.1900   -0.9416 H   0  0  0  0  0  0  0  0  0  0  0  0
    5.7190    0.5107   -1.7033 H   0  0  0  0  0  0  0  0  0  0  0  0
    6.5943   -0.4385   -0.5128 H   0  0  0  0  0  0  0  0  0  0  0  0
   -5.5512    3.4397   -0.8260 H   0  0  0  0  0  0  0  0  0  0  0  0
   -6.2712    3.0022    1.5095 H   0  0  0  0  0  0  0  0  0  0  0  0
   -3.6071    2.2403   -1.7779 H   0  0  0  0  0  0  0  0  0  0  0  0
   -5.0281    1.3508    2.9032 H   0  0  0  0  0  0  0  0  0  0  0  0
   -2.8048   -4.9749   -0.2169 H   0  0  0  0  0  0  0  0  0  0  0  0
   -0.6118   -4.0768    0.3574 H   0  0  0  0  0  0  0  0  0  0  0  0
   -4.2037   -1.0624   -1.2632 H   0  0  0  0  0  0  0  0  0  0  0  0
   -0.1261   -0.2851   -2.3486 H   0  0  0  0  0  0  0  0  0  0  0  0
    0.8488    1.1059   -1.8953 H   0  0  0  0  0  0  0  0  0  0  0  0
    0.8645   -2.9424    1.6680 H   0  0  0  0  0  0  0  0  0  0  0  0
    5.0767    2.1791    0.0662 H   0  0  0  0  0  0  0  0  0  0  0  0
  1 12  1  0
  2 12  1  0
  3  4  2  0
  3  5  1  0
  4  6  1  0
  5 14  2  0
  6 16  2  0
  7  8  2  0
  7 13  1  0
  8 17  1  0
  9 13  2  0
  9 15  1  0
 10 18  1  0
 10 26  1  0
 11 24  2  0
 11 25  1  0
 12 29  1  0
 13 22  1  0
 14 16  1  0
 14 20  1  0
 15 17  2  0
 15 20  1  0
 16 23  1  0
 17 25  1  0
 18 19  2  0
 18 25  1  0
 19 21  1  0
 19 24  1  0
 20 26  2  0
 21 27  2  0
 21 29  1  0
 26 28  1  0
  1 30  1  0
  1 31  1  0
  1 32  1  0
  2 33  1  0
  2 34  1  0
  2 35  1  0
  3 36  1  0
  4 37  1  0
  5 38  1  0
  6 39  1  0
  7 40  1  0
  8 41  1  0
  9 42  1  0
 10 43  1  0
 10 44  1  0
 11 45  1  0
 12 46  1  0
M  CHG  2  26   1  28  -1
M  END
