
     RDKit          3D

 47 50  0  0  0  0  0  0  0  0999 V2000
   -2.8759    3.4804   -0.6582 C   0  0  0  0  0  0  0  0  0  0  0  0
    5.9191    0.3737    3.2011 C   0  0  0  0  0  0  0  0  0  0  0  0
   -1.0658   -3.7688    2.4088 C   0  0  0  0  0  0  0  0  0  0  0  0
   -2.4027   -4.0844    2.2035 C   0  0  0  0  0  0  0  0  0  0  0  0
   -0.4611   -2.8148    1.5954 C   0  0  0  0  0  0  0  0  0  0  0  0
   -3.0384    0.1581   -3.5845 C   0  0  0  0  0  0  0  0  0  0  0  0
    2.6014    0.5961   -0.2964 C   0  0  0  0  0  0  0  0  0  0  0  0
   -2.4908    1.1180   -2.7303 C   0  0  0  0  0  0  0  0  0  0  0  0
    2.8581    0.7163    1.2087 C   0  0  0  0  0  0  0  0  0  0  0  0
   -3.0830   -3.4309    1.1886 C   0  0  0  0  0  0  0  0  0  0  0  0
   -1.9418   -1.5905   -2.3306 C   0  0  0  0  0  0  0  0  0  0  0  0
   -0.4199    3.5928    0.1181 C   0  0  0  0  0  0  0  0  0  0  0  0
   -1.4877    2.9820   -0.5047 C   0  0  0  0  0  0  0  0  0  0  0  0
   -2.7567   -1.1892   -3.3852 C   0  0  0  0  0  0  0  0  0  0  0  0
   -1.4082   -0.6376   -1.4450 C   0  0  0  0  0  0  0  0  0  0  0  0
   -1.2187   -2.2146    0.5910 C   0  0  0  0  0  0  0  0  0  0  0  0
    1.1276    0.4327   -0.6964 C   0  0  0  0  0  0  0  0  0  0  0  0
   -1.6627    0.7306   -1.6635 C   0  0  0  0  0  0  0  0  0  0  0  0
    4.3381    0.7051    1.5030 C   0  0  0  0  0  0  0  0  0  0  0  0
   -0.6112   -1.1418   -0.2776 C   0  0  0  0  0  0  0  0  0  0  0  0
    0.2944    1.6536   -0.4365 C   0  0  0  0  0  0  0  0  0  0  0  0
   -3.4858   -2.4827   -4.5560 Br  0  0  0  0  0  0  0  0  0  0  0  0
   -2.5262   -2.5040    0.3792 N   0  0  0  0  0  0  0  0  0  0  0  0
    0.6713    2.7765    0.1449 N   0  0  0  0  0  0  0  0  0  0  0  0
    0.5611   -0.6957    0.0432 N   0  0  0  0  0  0  0  0  0  0  0  0
   -1.0172    1.7317   -0.8874 N   0  0  0  0  0  0  0  0  0  0  0  0
    5.2254    0.9159    0.6883 O   0  0  0  0  0  0  0  0  0  0  0  0
    4.5422    0.4344    2.8238 O   0  0  0  0  0  0  0  0  0  0  0  0
   -3.0127    3.9635   -1.6301 H   0  0  0  0  0  0  0  0  0  0  0  0
   -3.1033    4.2270    0.1100 H   0  0  0  0  0  0  0  0  0  0  0  0
   -3.6068    2.6726   -0.5511 H   0  0  0  0  0  0  0  0  0  0  0  0
    6.3708    1.3669    3.1575 H   0  0  0  0  0  0  0  0  0  0  0  0
    5.9656    0.0140    4.2356 H   0  0  0  0  0  0  0  0  0  0  0  0
    6.4665   -0.3329    2.5709 H   0  0  0  0  0  0  0  0  0  0  0  0
   -0.5026   -4.2497    3.2042 H   0  0  0  0  0  0  0  0  0  0  0  0
   -2.9074   -4.8172    2.8230 H   0  0  0  0  0  0  0  0  0  0  0  0
    0.5763   -2.5404    1.7536 H   0  0  0  0  0  0  0  0  0  0  0  0
   -3.6627    0.4748   -4.4142 H   0  0  0  0  0  0  0  0  0  0  0  0
    3.1522   -0.2769   -0.6701 H   0  0  0  0  0  0  0  0  0  0  0  0
    3.0286    1.4672   -0.8113 H   0  0  0  0  0  0  0  0  0  0  0  0
   -2.6714    2.1635   -2.9633 H   0  0  0  0  0  0  0  0  0  0  0  0
    2.4079   -0.1317    1.7365 H   0  0  0  0  0  0  0  0  0  0  0  0
    2.4444    1.6438    1.6125 H   0  0  0  0  0  0  0  0  0  0  0  0
   -4.1313   -3.6392    0.9928 H   0  0  0  0  0  0  0  0  0  0  0  0
   -1.7364   -2.6493   -2.1833 H   0  0  0  0  0  0  0  0  0  0  0  0
   -0.3915    4.5780    0.5669 H   0  0  0  0  0  0  0  0  0  0  0  0
    1.1287    0.2231   -1.7749 H   0  0  0  0  0  0  0  0  0  0  0  0
  1 13  1  0
  2 28  1  0
  3  4  2  0
  3  5  1  0
  4 10  1  0
  5 16  2  0
  6  8  2  0
  6 14  1  0
  7  9  1  0
  7 17  1  0
  8 18  1  0
  9 19  1  0
 10 23  2  0
 11 14  2  0
 11 15  1  0
 12 13  2  0
 12 24  1  0
 13 26  1  0
 14 22  1  0
 15 18  2  0
 15 20  1  0
 16 20  1  0
 16 23  1  0
 17 21  1  0
 17 25  1  0
 18 26  1  0
 19 27  2  0
 19 28  1  0
 20 25  2  0
 21 24  2  0
 21 26  1  0
  1 29  1  0
  1 30  1  0
  1 31  1  0
  2 32  1  0
  2 33  1  0
  2 34  1  0
  3 35  1  0
  4 36  1  0
  5 37  1  0
  6 38  1  0
  7 39  1  0
  7 40  1  0
  8 41  1  0
  9 42  1  0
  9 43  1  0
 10 44  1  0
 11 45  1  0
 12 46  1  0
 17 47  1  0
M  END
