
     RDKit          3D

 47 50  0  0  0  0  0  0  0  0999 V2000
   -6.4376   -1.2638    0.9890 C   0  0  0  0  0  0  0  0  0  0  0  0
   -6.4045    0.1203    1.1551 C   0  0  0  0  0  0  0  0  0  0  0  0
   -5.2744   -1.9560    0.6522 C   0  0  0  0  0  0  0  0  0  0  0  0
   -5.2082    0.8163    0.9758 C   0  0  0  0  0  0  0  0  0  0  0  0
   -4.0748   -1.2638    0.4719 C   0  0  0  0  0  0  0  0  0  0  0  0
    6.6227   -0.1338   -0.0847 C   0  0  0  0  0  0  0  0  0  0  0  0
    6.3307   -1.1383   -1.1654 C   0  0  0  0  0  0  0  0  0  0  0  0
   -0.2049   -0.5924   -2.6508 C   0  0  0  0  0  0  0  0  0  0  0  0
    0.3478   -0.2629   -1.4083 C   0  0  0  0  0  0  0  0  0  0  0  0
    1.3747   -0.0694    1.3264 C   0  0  0  0  0  0  0  0  0  0  0  0
    2.7038    0.6572    1.0748 C   0  0  0  0  0  0  0  0  0  0  0  0
   -2.3584    0.1547   -1.8843 C   0  0  0  0  0  0  0  0  0  0  0  0
   -1.3199    2.6390    1.0838 C   0  0  0  0  0  0  0  0  0  0  0  0
    4.2331   -1.0603    0.3843 C   0  0  0  0  0  0  0  0  0  0  0  0
    5.2012   -0.3708   -0.5260 C   0  0  0  0  0  0  0  0  0  0  0  0
   -4.0419    0.1290    0.6184 C   0  0  0  0  0  0  0  0  0  0  0  0
   -1.5537   -0.3699   -2.8874 C   0  0  0  0  0  0  0  0  0  0  0  0
   -1.8110    0.4615   -0.6234 C   0  0  0  0  0  0  0  0  0  0  0  0
   -0.4314    0.2968   -0.3773 C   0  0  0  0  0  0  0  0  0  0  0  0
   -0.2009    1.7657    1.6323 C   0  0  0  0  0  0  0  0  0  0  0  0
   -2.7709    0.9010    0.4325 C   0  0  0  0  0  0  0  0  0  0  0  0
   -2.2314   -0.7577   -4.4182 Cl  0  0  0  0  0  0  0  0  0  0  0  0
   -2.5821    1.9193    1.2016 N   0  0  0  0  0  0  0  0  0  0  0  0
    0.2000    0.6731    0.8523 N   0  0  0  0  0  0  0  0  0  0  0  0
    0.3650    2.0598    2.6887 O   0  0  0  0  0  0  0  0  0  0  0  0
    3.8197   -0.1682    1.4162 O   0  0  0  0  0  0  0  0  0  0  0  0
   -7.3695   -1.8050    1.1343 H   0  0  0  0  0  0  0  0  0  0  0  0
   -7.3079    0.6581    1.4317 H   0  0  0  0  0  0  0  0  0  0  0  0
   -5.3008   -3.0372    0.5404 H   0  0  0  0  0  0  0  0  0  0  0  0
   -5.1873    1.8948    1.1173 H   0  0  0  0  0  0  0  0  0  0  0  0
   -3.1755   -1.8262    0.2374 H   0  0  0  0  0  0  0  0  0  0  0  0
    6.9261   -0.5004    0.8899 H   0  0  0  0  0  0  0  0  0  0  0  0
    7.0900    0.8026   -0.3676 H   0  0  0  0  0  0  0  0  0  0  0  0
    6.6095   -0.8819   -2.1814 H   0  0  0  0  0  0  0  0  0  0  0  0
    6.4568   -2.1876   -0.9237 H   0  0  0  0  0  0  0  0  0  0  0  0
    0.4303   -1.0059   -3.4309 H   0  0  0  0  0  0  0  0  0  0  0  0
    1.4162   -0.4170   -1.2911 H   0  0  0  0  0  0  0  0  0  0  0  0
    1.3779   -1.0812    0.9054 H   0  0  0  0  0  0  0  0  0  0  0  0
    1.2697   -0.2298    2.4080 H   0  0  0  0  0  0  0  0  0  0  0  0
    2.7623    1.5467    1.7108 H   0  0  0  0  0  0  0  0  0  0  0  0
    2.7850    1.0098    0.0409 H   0  0  0  0  0  0  0  0  0  0  0  0
   -3.4166    0.3164   -2.0806 H   0  0  0  0  0  0  0  0  0  0  0  0
   -1.1031    2.9724    0.0627 H   0  0  0  0  0  0  0  0  0  0  0  0
   -1.3757    3.5448    1.6979 H   0  0  0  0  0  0  0  0  0  0  0  0
    4.7128   -1.9138    0.8760 H   0  0  0  0  0  0  0  0  0  0  0  0
    3.3791   -1.4500   -0.1790 H   0  0  0  0  0  0  0  0  0  0  0  0
    4.7283    0.4041   -1.1172 H   0  0  0  0  0  0  0  0  0  0  0  0
  1  2  2  0
  1  3  1  0
  2  4  1  0
  3  5  2  0
  4 16  2  0
  5 16  1  0
  6  7  1  0
  6 15  1  0
  7 15  1  0
  8  9  2  0
  8 17  1  0
  9 19  1  0
 10 11  1  0
 10 24  1  0
 11 26  1  0
 12 17  2  0
 12 18  1  0
 13 20  1  0
 13 23  1  0
 14 15  1  0
 14 26  1  0
 16 21  1  0
 17 22  1  0
 18 19  2  0
 18 21  1  0
 19 24  1  0
 20 24  1  0
 20 25  2  0
 21 23  2  0
  1 27  1  0
  2 28  1  0
  3 29  1  0
  4 30  1  0
  5 31  1  0
  6 32  1  0
  6 33  1  0
  7 34  1  0
  7 35  1  0
  8 36  1  0
  9 37  1  0
 10 38  1  0
 10 39  1  0
 11 40  1  0
 11 41  1  0
 12 42  1  0
 13 43  1  0
 13 44  1  0
 14 45  1  0
 14 46  1  0
 15 47  1  0
M  END
