
     RDKit          3D

 48 52  0  0  0  0  0  0  0  0999 V2000
   -0.5805   -3.0765   -1.2599 C   0  0  0  0  0  0  0  0  0  0  0  0
   -2.7642    3.3052   -1.7276 C   0  0  0  0  0  0  0  0  0  0  0  0
   -1.7774    2.3293   -1.5228 C   0  0  0  0  0  0  0  0  0  0  0  0
   -4.0707    3.1634   -1.2231 C   0  0  0  0  0  0  0  0  0  0  0  0
    4.5329   -0.6011   -0.8080 C   0  0  0  0  0  0  0  0  0  0  0  0
    3.4040    0.7608    0.9203 C   0  0  0  0  0  0  0  0  0  0  0  0
    5.7670   -0.2983    0.0474 C   0  0  0  0  0  0  0  0  0  0  0  0
    4.5596    1.7107    0.5888 C   0  0  0  0  0  0  0  0  0  0  0  0
    0.0885    0.2340   -0.1072 C   0  0  0  0  0  0  0  0  0  0  0  0
   -3.1018   -1.2337    0.7594 C   0  0  0  0  0  0  0  0  0  0  0  0
   -5.2578    0.2993    0.6933 C   0  0  0  0  0  0  0  0  0  0  0  0
    0.0998   -2.1220    0.8666 C   0  0  0  0  0  0  0  0  0  0  0  0
   -3.9497   -0.0392    0.4380 C   0  0  0  0  0  0  0  0  0  0  0  0
    0.9176   -0.8426    0.5489 C   0  0  0  0  0  0  0  0  0  0  0  0
   -2.0787    1.1701   -0.8069 C   0  0  0  0  0  0  0  0  0  0  0  0
   -1.2001    0.0407   -0.4356 C   0  0  0  0  0  0  0  0  0  0  0  0
   -4.3504    1.9968   -0.5066 C   0  0  0  0  0  0  0  0  0  0  0  0
   -1.9229   -1.3166   -0.2799 C   0  0  0  0  0  0  0  0  0  0  0  0
   -3.3843    1.0280   -0.3062 C   0  0  0  0  0  0  0  0  0  0  0  0
    2.1905   -1.1395   -0.2678 C   0  0  0  0  0  0  0  0  0  0  0  0
   -5.4895    1.5328    0.1171 N   0  0  0  0  0  0  0  0  0  0  0  0
   -1.0372   -2.4706   -0.0059 N   0  0  0  0  0  0  0  0  0  0  0  0
    3.2979   -0.3186   -0.0681 N   0  0  0  0  0  0  0  0  0  0  0  0
    2.2357   -2.0604   -1.0860 O   0  0  0  0  0  0  0  0  0  0  0  0
    5.8314    1.0554    0.5199 O   0  0  0  0  0  0  0  0  0  0  0  0
   -1.4328   -3.5097   -1.7964 H   0  0  0  0  0  0  0  0  0  0  0  0
   -0.0969   -2.3587   -1.9298 H   0  0  0  0  0  0  0  0  0  0  0  0
    0.1093   -3.9057   -1.0682 H   0  0  0  0  0  0  0  0  0  0  0  0
   -2.5129    4.2006   -2.2934 H   0  0  0  0  0  0  0  0  0  0  0  0
   -0.7829    2.4788   -1.9326 H   0  0  0  0  0  0  0  0  0  0  0  0
   -4.8214    3.9284   -1.3888 H   0  0  0  0  0  0  0  0  0  0  0  0
    4.5192    0.0453   -1.6933 H   0  0  0  0  0  0  0  0  0  0  0  0
    4.5589   -1.6415   -1.1463 H   0  0  0  0  0  0  0  0  0  0  0  0
    2.4698    1.3218    0.9773 H   0  0  0  0  0  0  0  0  0  0  0  0
    3.5791    0.2793    1.8894 H   0  0  0  0  0  0  0  0  0  0  0  0
    5.7843   -0.9515    0.9276 H   0  0  0  0  0  0  0  0  0  0  0  0
    6.6811   -0.4921   -0.5225 H   0  0  0  0  0  0  0  0  0  0  0  0
    4.6335    2.4955    1.3482 H   0  0  0  0  0  0  0  0  0  0  0  0
    4.3847    2.2034   -0.3749 H   0  0  0  0  0  0  0  0  0  0  0  0
    0.5350    1.2184   -0.2012 H   0  0  0  0  0  0  0  0  0  0  0  0
   -2.7100   -1.1333    1.7788 H   0  0  0  0  0  0  0  0  0  0  0  0
   -3.7052   -2.1478    0.7140 H   0  0  0  0  0  0  0  0  0  0  0  0
   -6.0472   -0.2191    1.2207 H   0  0  0  0  0  0  0  0  0  0  0  0
   -0.3257   -1.9872    1.8716 H   0  0  0  0  0  0  0  0  0  0  0  0
    0.7679   -2.9868    0.9748 H   0  0  0  0  0  0  0  0  0  0  0  0
    1.2384   -0.4636    1.5270 H   0  0  0  0  0  0  0  0  0  0  0  0
   -2.4153   -1.5085   -1.2478 H   0  0  0  0  0  0  0  0  0  0  0  0
   -6.3705    2.0267    0.1424 H   0  0  0  0  0  0  0  0  0  0  0  0
  1 22  1  0
  2  3  2  0
  2  4  1  0
  3 15  1  0
  4 17  2  0
  5  7  1  0
  5 23  1  0
  6  8  1  0
  6 23  1  0
  7 25  1  0
  8 25  1  0
  9 14  1  0
  9 16  2  0
 10 13  1  0
 10 18  1  0
 11 13  2  0
 11 21  1  0
 12 14  1  0
 12 22  1  0
 13 19  1  0
 14 20  1  0
 15 16  1  0
 15 19  2  0
 16 18  1  0
 17 19  1  0
 17 21  1  0
 18 22  1  0
 20 23  1  0
 20 24  2  0
  1 26  1  0
  1 27  1  0
  1 28  1  0
  2 29  1  0
  3 30  1  0
  4 31  1  0
  5 32  1  0
  5 33  1  0
  6 34  1  0
  6 35  1  0
  7 36  1  0
  7 37  1  0
  8 38  1  0
  8 39  1  0
  9 40  1  0
 10 41  1  0
 10 42  1  0
 11 43  1  0
 12 44  1  0
 12 45  1  0
 14 46  1  0
 18 47  1  0
 21 48  1  0
M  END
