
     RDKit          3D

 50 54  0  0  0  0  0  0  0  0999 V2000
   -4.3553    1.5153    2.0090 C   0  0  0  0  0  0  0  0  0  0  0  0
    0.6496   -2.1090    2.3432 C   0  0  0  0  0  0  0  0  0  0  0  0
   -4.1808    1.6282    0.5020 C   0  0  0  0  0  0  0  0  0  0  0  0
    3.9402    1.3622   -3.3455 C   0  0  0  0  0  0  0  0  0  0  0  0
    2.7205    0.9009   -2.8288 C   0  0  0  0  0  0  0  0  0  0  0  0
    5.0881    1.4743   -2.5450 C   0  0  0  0  0  0  0  0  0  0  0  0
   -5.3120   -1.0702   -0.4338 C   0  0  0  0  0  0  0  0  0  0  0  0
   -4.0749   -1.8927   -0.2655 C   0  0  0  0  0  0  0  0  0  0  0  0
    0.1778    0.2431   -1.2247 C   0  0  0  0  0  0  0  0  0  0  0  0
    2.7693   -0.1222    1.4755 C   0  0  0  0  0  0  0  0  0  0  0  0
    5.2420    0.6380    0.9920 C   0  0  0  0  0  0  0  0  0  0  0  0
   -0.6964   -1.4130    0.4786 C   0  0  0  0  0  0  0  0  0  0  0  0
    3.9312    0.3625    0.6794 C   0  0  0  0  0  0  0  0  0  0  0  0
   -1.0452   -0.3453   -0.5734 C   0  0  0  0  0  0  0  0  0  0  0  0
   -3.9680   -0.4844   -0.7932 C   0  0  0  0  0  0  0  0  0  0  0  0
    2.6061    0.5362   -1.4814 C   0  0  0  0  0  0  0  0  0  0  0  0
    1.4198    0.0126   -0.7614 C   0  0  0  0  0  0  0  0  0  0  0  0
    4.9594    1.1038   -1.2049 C   0  0  0  0  0  0  0  0  0  0  0  0
    1.6845   -0.7953    0.5470 C   0  0  0  0  0  0  0  0  0  0  0  0
    3.7564    0.6503   -0.6902 C   0  0  0  0  0  0  0  0  0  0  0  0
   -1.9389    0.7538    0.0352 C   0  0  0  0  0  0  0  0  0  0  0  0
    5.8554    1.0882   -0.1576 N   0  0  0  0  0  0  0  0  0  0  0  0
    0.4478   -1.0641    1.3376 N   0  0  0  0  0  0  0  0  0  0  0  0
   -3.3307    0.5602   -0.0283 N   0  0  0  0  0  0  0  0  0  0  0  0
   -1.4599    1.7627    0.5612 O   0  0  0  0  0  0  0  0  0  0  0  0
   -3.3948    1.5939    2.5281 H   0  0  0  0  0  0  0  0  0  0  0  0
   -5.0067    2.3142    2.3763 H   0  0  0  0  0  0  0  0  0  0  0  0
   -4.8020    0.5548    2.2844 H   0  0  0  0  0  0  0  0  0  0  0  0
    0.9713   -3.0557    1.8947 H   0  0  0  0  0  0  0  0  0  0  0  0
    1.3867   -1.8096    3.0938 H   0  0  0  0  0  0  0  0  0  0  0  0
   -0.2774   -2.2938    2.8986 H   0  0  0  0  0  0  0  0  0  0  0  0
   -3.7338    2.5987    0.2572 H   0  0  0  0  0  0  0  0  0  0  0  0
   -5.1575    1.6009    0.0065 H   0  0  0  0  0  0  0  0  0  0  0  0
    3.9991    1.6397   -4.3961 H   0  0  0  0  0  0  0  0  0  0  0  0
    1.8667    0.8212   -3.4949 H   0  0  0  0  0  0  0  0  0  0  0  0
    6.0257    1.8334   -2.9543 H   0  0  0  0  0  0  0  0  0  0  0  0
   -5.8180   -0.7447    0.4666 H   0  0  0  0  0  0  0  0  0  0  0  0
   -5.9848   -1.3238   -1.2454 H   0  0  0  0  0  0  0  0  0  0  0  0
   -3.9064   -2.7077   -0.9594 H   0  0  0  0  0  0  0  0  0  0  0  0
   -3.7686   -2.1029    0.7522 H   0  0  0  0  0  0  0  0  0  0  0  0
    0.0032    0.8577   -2.1019 H   0  0  0  0  0  0  0  0  0  0  0  0
    2.3270    0.7301    2.0073 H   0  0  0  0  0  0  0  0  0  0  0  0
    3.1283   -0.8361    2.2249 H   0  0  0  0  0  0  0  0  0  0  0  0
    5.7921    0.5676    1.9206 H   0  0  0  0  0  0  0  0  0  0  0  0
   -0.4893   -2.3611   -0.0378 H   0  0  0  0  0  0  0  0  0  0  0  0
   -1.5706   -1.5847    1.1161 H   0  0  0  0  0  0  0  0  0  0  0  0
   -1.5907   -0.8423   -1.3822 H   0  0  0  0  0  0  0  0  0  0  0  0
   -3.8003   -0.3614   -1.8625 H   0  0  0  0  0  0  0  0  0  0  0  0
    2.0933   -1.7598    0.2056 H   0  0  0  0  0  0  0  0  0  0  0  0
    6.8215    1.3755   -0.2253 H   0  0  0  0  0  0  0  0  0  0  0  0
  1  3  1  0
  2 23  1  0
  3 24  1  0
  4  5  2  0
  4  6  1  0
  5 16  1  0
  6 18  2  0
  7  8  1  0
  7 15  1  0
  8 15  1  0
  9 14  1  0
  9 17  2  0
 10 13  1  0
 10 19  1  0
 11 13  2  0
 11 22  1  0
 12 14  1  0
 12 23  1  0
 13 20  1  0
 14 21  1  0
 15 24  1  0
 16 17  1  0
 16 20  2  0
 17 19  1  0
 18 20  1  0
 18 22  1  0
 19 23  1  0
 21 24  1  0
 21 25  2  0
  1 26  1  0
  1 27  1  0
  1 28  1  0
  2 29  1  0
  2 30  1  0
  2 31  1  0
  3 32  1  0
  3 33  1  0
  4 34  1  0
  5 35  1  0
  6 36  1  0
  7 37  1  0
  7 38  1  0
  8 39  1  0
  8 40  1  0
  9 41  1  0
 10 42  1  0
 10 43  1  0
 11 44  1  0
 12 45  1  0
 12 46  1  0
 14 47  1  0
 15 48  1  0
 19 49  1  0
 22 50  1  0
M  END
