
     RDKit          3D

 51 54  0  0  0  0  0  0  0  0999 V2000
    8.5888    1.0096   -0.3089 C   0  0  0  0  0  0  0  0  0  0  0  0
   -7.2024   -0.0546   -0.0628 C   0  0  0  0  0  0  0  0  0  0  0  0
   -6.2039    0.7717   -0.8909 C   0  0  0  0  0  0  0  0  0  0  0  0
   -6.2588   -1.2552   -0.2448 C   0  0  0  0  0  0  0  0  0  0  0  0
   -0.0458   -1.3395    1.1168 C   0  0  0  0  0  0  0  0  0  0  0  0
    4.8120   -0.1365   -1.3877 C   0  0  0  0  0  0  0  0  0  0  0  0
    1.1491   -0.6238    1.1896 C   0  0  0  0  0  0  0  0  0  0  0  0
    3.6021    0.4176   -0.9753 C   0  0  0  0  0  0  0  0  0  0  0  0
   -2.4801   -1.5664    0.5281 C   0  0  0  0  0  0  0  0  0  0  0  0
   -2.3973    1.2773   -0.3872 C   0  0  0  0  0  0  0  0  0  0  0  0
   -3.6538   -0.9849    1.3336 C   0  0  0  0  0  0  0  0  0  0  0  0
   -3.5855    1.3348    0.5876 C   0  0  0  0  0  0  0  0  0  0  0  0
    0.0367    1.2989    0.2436 C   0  0  0  0  0  0  0  0  0  0  0  0
    5.6677    0.2705    0.8066 C   0  0  0  0  0  0  0  0  0  0  0  0
   -1.2148   -0.7460    0.6083 C   0  0  0  0  0  0  0  0  0  0  0  0
   -1.1755    0.5903    0.1733 C   0  0  0  0  0  0  0  0  0  0  0  0
    5.8694   -0.2040   -0.4811 C   0  0  0  0  0  0  0  0  0  0  0  0
   -5.0953   -0.2576   -0.5207 C   0  0  0  0  0  0  0  0  0  0  0  0
    1.1930    0.6899    0.7309 C   0  0  0  0  0  0  0  0  0  0  0  0
    3.4916    0.8641    0.3385 C   0  0  0  0  0  0  0  0  0  0  0  0
    7.1555   -0.7804   -0.8693 C   0  0  0  0  0  0  0  0  0  0  0  0
    8.3544   -0.3448   -0.7868 N   0  0  0  0  0  0  0  0  0  0  0  0
    4.5037    0.8163    1.2342 N   0  0  0  0  0  0  0  0  0  0  0  0
   -4.4217    0.1274    0.7398 N   0  0  0  0  0  0  0  0  0  0  0  0
    6.9841   -2.0063   -1.3859 O   0  0  0  0  0  0  0  0  0  0  0  0
    2.3313    1.4615    0.7844 O   0  0  0  0  0  0  0  0  0  0  0  0
    9.5489    1.3609   -0.7005 H   0  0  0  0  0  0  0  0  0  0  0  0
    8.6515    1.0302    0.7831 H   0  0  0  0  0  0  0  0  0  0  0  0
    7.8290    1.7204   -0.6500 H   0  0  0  0  0  0  0  0  0  0  0  0
   -7.3009    0.2793    0.9761 H   0  0  0  0  0  0  0  0  0  0  0  0
   -8.1999   -0.1655   -0.4947 H   0  0  0  0  0  0  0  0  0  0  0  0
   -6.1036    1.8138   -0.5816 H   0  0  0  0  0  0  0  0  0  0  0  0
   -6.4383    0.7698   -1.9637 H   0  0  0  0  0  0  0  0  0  0  0  0
   -6.5089   -1.8622   -1.1248 H   0  0  0  0  0  0  0  0  0  0  0  0
   -6.2054   -1.9300    0.6116 H   0  0  0  0  0  0  0  0  0  0  0  0
   -0.0588   -2.3686    1.4702 H   0  0  0  0  0  0  0  0  0  0  0  0
    4.9290   -0.5067   -2.4025 H   0  0  0  0  0  0  0  0  0  0  0  0
    2.0322   -1.0957    1.6123 H   0  0  0  0  0  0  0  0  0  0  0  0
    2.7674    0.4987   -1.6628 H   0  0  0  0  0  0  0  0  0  0  0  0
   -2.2788   -2.5696    0.9275 H   0  0  0  0  0  0  0  0  0  0  0  0
   -2.7414   -1.7272   -0.5236 H   0  0  0  0  0  0  0  0  0  0  0  0
   -2.1368    2.3143   -0.6383 H   0  0  0  0  0  0  0  0  0  0  0  0
   -2.6686    0.8138   -1.3421 H   0  0  0  0  0  0  0  0  0  0  0  0
   -4.3404   -1.8086    1.5559 H   0  0  0  0  0  0  0  0  0  0  0  0
   -3.2941   -0.6671    2.3222 H   0  0  0  0  0  0  0  0  0  0  0  0
   -3.2254    1.6324    1.5822 H   0  0  0  0  0  0  0  0  0  0  0  0
   -4.2241    2.1690    0.2785 H   0  0  0  0  0  0  0  0  0  0  0  0
    0.0886    2.3344   -0.0854 H   0  0  0  0  0  0  0  0  0  0  0  0
    6.4494    0.2190    1.5590 H   0  0  0  0  0  0  0  0  0  0  0  0
   -4.4434   -0.5402   -1.3514 H   0  0  0  0  0  0  0  0  0  0  0  0
    7.8691   -2.3443   -1.6081 H   0  0  0  0  0  0  0  0  0  0  0  0
  1 22  1  0
  2  3  1  0
  2  4  1  0
  3 18  1  0
  4 18  1  0
  5  7  2  0
  5 15  1  0
  6  8  2  0
  6 17  1  0
  7 19  1  0
  8 20  1  0
  9 11  1  0
  9 15  1  0
 10 12  1  0
 10 16  1  0
 11 24  1  0
 12 24  1  0
 13 16  1  0
 13 19  2  0
 14 17  2  0
 14 23  1  0
 15 16  2  0
 17 21  1  0
 18 24  1  0
 19 26  1  0
 20 23  2  0
 20 26  1  0
 21 22  2  3
 21 25  1  0
  1 27  1  0
  1 28  1  0
  1 29  1  0
  2 30  1  0
  2 31  1  0
  3 32  1  0
  3 33  1  0
  4 34  1  0
  4 35  1  0
  5 36  1  0
  6 37  1  0
  7 38  1  0
  8 39  1  0
  9 40  1  0
  9 41  1  0
 10 42  1  0
 10 43  1  0
 11 44  1  0
 11 45  1  0
 12 46  1  0
 12 47  1  0
 13 48  1  0
 14 49  1  0
 18 50  1  0
 25 51  1  0
M  END
