
     RDKit          3D

 51 54  0  0  0  0  0  0  0  0999 V2000
    7.7881   -1.3596   -0.9259 C   0  0  0  0  0  0  0  0  0  0  0  0
    6.4375   -0.8067   -1.3445 C   0  0  0  0  0  0  0  0  0  0  0  0
   -1.9518    0.5283    4.7763 C   0  0  0  0  0  0  0  0  0  0  0  0
   -2.4571   -0.5241    4.0119 C   0  0  0  0  0  0  0  0  0  0  0  0
   -5.1635   -0.1733   -2.5108 C   0  0  0  0  0  0  0  0  0  0  0  0
   -4.7719   -1.6021   -2.1629 C   0  0  0  0  0  0  0  0  0  0  0  0
   -1.1731    1.5300    4.1856 C   0  0  0  0  0  0  0  0  0  0  0  0
   -2.2002   -0.6135    2.6388 C   0  0  0  0  0  0  0  0  0  0  0  0
    4.1334    1.0810    0.7372 C   0  0  0  0  0  0  0  0  0  0  0  0
    3.8800    0.4178   -1.5618 C   0  0  0  0  0  0  0  0  0  0  0  0
    2.8890    1.7166    0.6998 C   0  0  0  0  0  0  0  0  0  0  0  0
    2.6315    1.0519   -1.5999 C   0  0  0  0  0  0  0  0  0  0  0  0
   -4.7931    0.6399   -1.2819 C   0  0  0  0  0  0  0  0  0  0  0  0
   -4.0824   -1.5111   -0.8074 C   0  0  0  0  0  0  0  0  0  0  0  0
   -2.3919    0.2139   -1.2334 C   0  0  0  0  0  0  0  0  0  0  0  0
   -1.2019   -0.2264   -0.3633 C   0  0  0  0  0  0  0  0  0  0  0  0
    4.6353    0.4276   -0.3899 C   0  0  0  0  0  0  0  0  0  0  0  0
    2.1207    1.6952   -0.4669 C   0  0  0  0  0  0  0  0  0  0  0  0
   -0.9056    1.4577    2.8100 C   0  0  0  0  0  0  0  0  0  0  0  0
   -1.4150    0.3954    2.0662 C   0  0  0  0  0  0  0  0  0  0  0  0
   -0.2301    1.7924    0.8178 C   0  0  0  0  0  0  0  0  0  0  0  0
   -0.1786    2.3119    2.0226 N   0  0  0  0  0  0  0  0  0  0  0  0
   -3.7014   -0.1008   -0.6294 N   0  0  0  0  0  0  0  0  0  0  0  0
   -0.9687    0.6346    0.7822 N   0  0  0  0  0  0  0  0  0  0  0  0
    5.8612   -0.1516   -0.2164 O   0  0  0  0  0  0  0  0  0  0  0  0
    0.5303    2.4996   -0.5737 S   0  0  0  0  0  0  0  0  0  0  0  0
    7.6769   -2.0567   -0.0888 H   0  0  0  0  0  0  0  0  0  0  0  0
    8.2710   -1.8801   -1.7575 H   0  0  0  0  0  0  0  0  0  0  0  0
    8.4451   -0.5532   -0.5837 H   0  0  0  0  0  0  0  0  0  0  0  0
    6.5811   -0.0948   -2.1657 H   0  0  0  0  0  0  0  0  0  0  0  0
    5.7981   -1.6350   -1.6712 H   0  0  0  0  0  0  0  0  0  0  0  0
   -2.1676    0.5763    5.8408 H   0  0  0  0  0  0  0  0  0  0  0  0
   -3.0674   -1.2874    4.4900 H   0  0  0  0  0  0  0  0  0  0  0  0
   -4.5952    0.1659   -3.3846 H   0  0  0  0  0  0  0  0  0  0  0  0
   -6.2283   -0.0885   -2.7490 H   0  0  0  0  0  0  0  0  0  0  0  0
   -4.0922   -2.0000   -2.9248 H   0  0  0  0  0  0  0  0  0  0  0  0
   -5.6472   -2.2581   -2.1173 H   0  0  0  0  0  0  0  0  0  0  0  0
   -0.7804    2.3538    4.7709 H   0  0  0  0  0  0  0  0  0  0  0  0
   -2.6091   -1.4260    2.0486 H   0  0  0  0  0  0  0  0  0  0  0  0
    4.7170    1.1012    1.6546 H   0  0  0  0  0  0  0  0  0  0  0  0
    4.2318   -0.0690   -2.4650 H   0  0  0  0  0  0  0  0  0  0  0  0
    2.5300    2.2270    1.5918 H   0  0  0  0  0  0  0  0  0  0  0  0
    2.0645    1.0402   -2.5280 H   0  0  0  0  0  0  0  0  0  0  0  0
   -5.6475    0.6773   -0.5943 H   0  0  0  0  0  0  0  0  0  0  0  0
   -4.5394    1.6776   -1.5239 H   0  0  0  0  0  0  0  0  0  0  0  0
   -3.2478   -2.2142   -0.7219 H   0  0  0  0  0  0  0  0  0  0  0  0
   -4.7964   -1.7776   -0.0178 H   0  0  0  0  0  0  0  0  0  0  0  0
   -2.2977   -0.2512   -2.2228 H   0  0  0  0  0  0  0  0  0  0  0  0
   -2.3166    1.2969   -1.3915 H   0  0  0  0  0  0  0  0  0  0  0  0
   -1.3154   -1.2538   -0.0019 H   0  0  0  0  0  0  0  0  0  0  0  0
   -0.2883   -0.2303   -0.9671 H   0  0  0  0  0  0  0  0  0  0  0  0
  1  2  1  0
  2 25  1  0
  3  4  2  0
  3  7  1  0
  4  8  1  0
  5  6  1  0
  5 13  1  0
  6 14  1  0
  7 19  2  0
  8 20  2  0
  9 11  2  0
  9 17  1  0
 10 12  1  0
 10 17  2  0
 11 18  1  0
 12 18  2  0
 13 23  1  0
 14 23  1  0
 15 16  1  0
 15 23  1  0
 16 24  1  0
 17 25  1  0
 18 26  1  0
 19 20  1  0
 19 22  1  0
 20 24  1  0
 21 22  2  0
 21 24  1  0
 21 26  1  0
  1 27  1  0
  1 28  1  0
  1 29  1  0
  2 30  1  0
  2 31  1  0
  3 32  1  0
  4 33  1  0
  5 34  1  0
  5 35  1  0
  6 36  1  0
  6 37  1  0
  7 38  1  0
  8 39  1  0
  9 40  1  0
 10 41  1  0
 11 42  1  0
 12 43  1  0
 13 44  1  0
 13 45  1  0
 14 46  1  0
 14 47  1  0
 15 48  1  0
 15 49  1  0
 16 50  1  0
 16 51  1  0
M  END
