
     RDKit          3D

 54 56  0  0  0  0  0  0  0  0999 V2000
   -5.7749   -2.0013   -0.0053 C   0  0  0  0  0  0  0  0  0  0  0  0
    6.9220   -0.2348    1.0223 C   0  0  0  0  0  0  0  0  0  0  0  0
    6.4990   -2.4944    0.0150 C   0  0  0  0  0  0  0  0  0  0  0  0
   -4.5035   -2.8346    0.1008 C   0  0  0  0  0  0  0  0  0  0  0  0
    1.7061   -1.6612   -0.5376 C   0  0  0  0  0  0  0  0  0  0  0  0
    1.9654    0.2936   -1.9293 C   0  0  0  0  0  0  0  0  0  0  0  0
   -3.0758    3.7229    1.4987 C   0  0  0  0  0  0  0  0  0  0  0  0
    3.0809   -1.6536   -0.2688 C   0  0  0  0  0  0  0  0  0  0  0  0
    3.3357    0.2977   -1.6618 C   0  0  0  0  0  0  0  0  0  0  0  0
   -2.7129    2.3751    1.6094 C   0  0  0  0  0  0  0  0  0  0  0  0
   -2.9938   -1.2964    1.2515 C   0  0  0  0  0  0  0  0  0  0  0  0
   -1.6325   -0.5792    1.2069 C   0  0  0  0  0  0  0  0  0  0  0  0
   -0.3542   -0.6619   -1.6405 C   0  0  0  0  0  0  0  0  0  0  0  0
   -2.1897    3.8402   -0.7813 C   0  0  0  0  0  0  0  0  0  0  0  0
    5.8557   -1.1891    0.4841 C   0  0  0  0  0  0  0  0  0  0  0  0
    1.1324   -0.6818   -1.3616 C   0  0  0  0  0  0  0  0  0  0  0  0
   -2.8136    4.4422    0.3224 C   0  0  0  0  0  0  0  0  0  0  0  0
    3.8989   -0.6614   -0.8171 C   0  0  0  0  0  0  0  0  0  0  0  0
   -1.8241    2.4907   -0.6716 C   0  0  0  0  0  0  0  0  0  0  0  0
   -2.0832    1.7910    0.5023 C   0  0  0  0  0  0  0  0  0  0  0  0
   -1.0451    0.5127   -1.0099 C   0  0  0  0  0  0  0  0  0  0  0  0
   -3.2807   -2.0290    0.0124 N   0  0  0  0  0  0  0  0  0  0  0  0
   -1.2083    1.6873   -1.5918 N   0  0  0  0  0  0  0  0  0  0  0  0
   -1.5902    0.5240    0.2588 N   0  0  0  0  0  0  0  0  0  0  0  0
   -3.1958    5.8570    0.2451 N   0  0  0  0  0  4  0  0  0  0  0  0
   -3.7625    6.3557    1.2273 O   0  0  0  0  0  1  0  0  0  0  0  0
   -2.9312    6.4712   -0.7950 O   0  0  0  0  0  0  0  0  0  0  0  0
    5.2467   -0.5347   -0.6358 O   0  0  0  0  0  0  0  0  0  0  0  0
   -5.8803   -1.3067    0.8336 H   0  0  0  0  0  0  0  0  0  0  0  0
   -6.6506   -2.6552   -0.0074 H   0  0  0  0  0  0  0  0  0  0  0  0
   -5.7907   -1.4222   -0.9354 H   0  0  0  0  0  0  0  0  0  0  0  0
    6.4591    0.6959    1.3699 H   0  0  0  0  0  0  0  0  0  0  0  0
    7.4708   -0.6831    1.8603 H   0  0  0  0  0  0  0  0  0  0  0  0
    7.6331    0.0436    0.2396 H   0  0  0  0  0  0  0  0  0  0  0  0
    7.1820   -2.3103   -0.8266 H   0  0  0  0  0  0  0  0  0  0  0  0
    7.0588   -2.9694    0.8283 H   0  0  0  0  0  0  0  0  0  0  0  0
    5.7410   -3.2024   -0.3416 H   0  0  0  0  0  0  0  0  0  0  0  0
   -4.4907   -3.5481   -0.7331 H   0  0  0  0  0  0  0  0  0  0  0  0
   -4.5131   -3.4360    1.0187 H   0  0  0  0  0  0  0  0  0  0  0  0
    1.0905   -2.4435   -0.1001 H   0  0  0  0  0  0  0  0  0  0  0  0
    1.5466    1.0632   -2.5802 H   0  0  0  0  0  0  0  0  0  0  0  0
   -3.5621    4.2004    2.3484 H   0  0  0  0  0  0  0  0  0  0  0  0
    3.4827   -2.4440    0.3605 H   0  0  0  0  0  0  0  0  0  0  0  0
    3.9673    1.0639   -2.1087 H   0  0  0  0  0  0  0  0  0  0  0  0
   -2.9114    1.8194    2.5197 H   0  0  0  0  0  0  0  0  0  0  0  0
   -3.7879   -0.5717    1.4555 H   0  0  0  0  0  0  0  0  0  0  0  0
   -2.9650   -2.0030    2.0907 H   0  0  0  0  0  0  0  0  0  0  0  0
   -0.8296   -1.2835    0.9742 H   0  0  0  0  0  0  0  0  0  0  0  0
   -1.3987   -0.1639    2.1981 H   0  0  0  0  0  0  0  0  0  0  0  0
   -0.8154   -1.6053   -1.3294 H   0  0  0  0  0  0  0  0  0  0  0  0
   -0.4996   -0.6145   -2.7272 H   0  0  0  0  0  0  0  0  0  0  0  0
   -1.9771    4.3765   -1.7004 H   0  0  0  0  0  0  0  0  0  0  0  0
    5.1449   -1.3775    1.3029 H   0  0  0  0  0  0  0  0  0  0  0  0
   -3.3756   -1.3706   -0.7655 H   0  0  0  0  0  0  0  0  0  0  0  0
  1  4  1  0
  2 15  1  0
  3 15  1  0
  4 22  1  0
  5  8  2  0
  5 16  1  0
  6  9  1  0
  6 16  2  0
  7 10  2  0
  7 17  1  0
  8 18  1  0
  9 18  2  0
 10 20  1  0
 11 12  1  0
 11 22  1  0
 12 24  1  0
 13 16  1  0
 13 21  1  0
 14 17  2  0
 14 19  1  0
 15 28  1  0
 17 25  1  0
 18 28  1  0
 19 20  2  0
 19 23  1  0
 20 24  1  0
 21 23  2  0
 21 24  1  0
 25 26  1  0
 25 27  2  0
  1 29  1  0
  1 30  1  0
  1 31  1  0
  2 32  1  0
  2 33  1  0
  2 34  1  0
  3 35  1  0
  3 36  1  0
  3 37  1  0
  4 38  1  0
  4 39  1  0
  5 40  1  0
  6 41  1  0
  7 42  1  0
  8 43  1  0
  9 44  1  0
 10 45  1  0
 11 46  1  0
 11 47  1  0
 12 48  1  0
 12 49  1  0
 13 50  1  0
 13 51  1  0
 14 52  1  0
 15 53  1  0
 22 54  1  0
M  CHG  2  25   1  26  -1
M  END
