
     RDKit          3D

 49 51  0  0  0  0  0  0  0  0999 V2000
    6.0880   -1.3120    0.2383 C   0  0  0  0  0  0  0  0  0  0  0  0
   -5.0460    1.7718   -2.7514 C   0  0  0  0  0  0  0  0  0  0  0  0
   -2.5998   -3.0843    0.9723 C   0  0  0  0  0  0  0  0  0  0  0  0
   -2.4768   -1.1366    2.5339 C   0  0  0  0  0  0  0  0  0  0  0  0
    4.6964   -1.3518   -0.3735 C   0  0  0  0  0  0  0  0  0  0  0  0
    4.2686   -0.0267   -1.0089 C   0  0  0  0  0  0  0  0  0  0  0  0
    4.2235    1.1811   -0.0643 C   0  0  0  0  0  0  0  0  0  0  0  0
    3.2755    1.0412    1.1327 C   0  0  0  0  0  0  0  0  0  0  0  0
   -4.9957   -0.1654   -1.1508 C   0  0  0  0  0  0  0  0  0  0  0  0
   -4.3197   -0.9747   -0.2402 C   0  0  0  0  0  0  0  0  0  0  0  0
   -3.0173    1.1892   -1.3786 C   0  0  0  0  0  0  0  0  0  0  0  0
    1.1284    2.0031    0.2052 C   0  0  0  0  0  0  0  0  0  0  0  0
    1.1323   -0.2777    0.9415 C   0  0  0  0  0  0  0  0  0  0  0  0
   -4.3504    0.9250   -1.7275 C   0  0  0  0  0  0  0  0  0  0  0  0
    1.8221    0.9188    0.7494 C   0  0  0  0  0  0  0  0  0  0  0  0
   -2.3185    0.4079   -0.4391 C   0  0  0  0  0  0  0  0  0  0  0  0
   -2.9793   -0.7151    0.1050 C   0  0  0  0  0  0  0  0  0  0  0  0
   -0.2197    1.8786   -0.1676 C   0  0  0  0  0  0  0  0  0  0  0  0
   -0.2170   -0.3863    0.5850 C   0  0  0  0  0  0  0  0  0  0  0  0
   -0.9220    0.6664   -0.0217 C   0  0  0  0  0  0  0  0  0  0  0  0
   -2.2142   -1.5970    1.0887 C   0  0  0  0  0  0  0  0  0  0  0  0
   -0.8447    2.9969   -0.6568 O   0  0  0  0  0  0  0  0  0  0  0  0
   -0.7871   -1.6037    0.8531 O   0  0  0  0  0  0  0  0  0  0  0  0
    6.3761   -2.3111    0.5809 H   0  0  0  0  0  0  0  0  0  0  0  0
    6.1269   -0.6424    1.1025 H   0  0  0  0  0  0  0  0  0  0  0  0
    6.8301   -0.9781   -0.4937 H   0  0  0  0  0  0  0  0  0  0  0  0
   -6.1298    1.7665   -2.5944 H   0  0  0  0  0  0  0  0  0  0  0  0
   -4.8336    1.3940   -3.7562 H   0  0  0  0  0  0  0  0  0  0  0  0
   -4.7143    2.8134   -2.6856 H   0  0  0  0  0  0  0  0  0  0  0  0
   -2.4745   -3.4406   -0.0574 H   0  0  0  0  0  0  0  0  0  0  0  0
   -1.9437   -3.7048    1.5953 H   0  0  0  0  0  0  0  0  0  0  0  0
   -3.6307   -3.2817    1.2828 H   0  0  0  0  0  0  0  0  0  0  0  0
   -1.8933   -1.7333    3.2446 H   0  0  0  0  0  0  0  0  0  0  0  0
   -2.1777   -0.0933    2.6871 H   0  0  0  0  0  0  0  0  0  0  0  0
   -3.5367   -1.2196    2.7987 H   0  0  0  0  0  0  0  0  0  0  0  0
    4.6808   -2.1255   -1.1508 H   0  0  0  0  0  0  0  0  0  0  0  0
    3.9733   -1.6654    0.3863 H   0  0  0  0  0  0  0  0  0  0  0  0
    3.2851   -0.1634   -1.4743 H   0  0  0  0  0  0  0  0  0  0  0  0
    4.9594    0.2077   -1.8289 H   0  0  0  0  0  0  0  0  0  0  0  0
    3.9432    2.0636   -0.6534 H   0  0  0  0  0  0  0  0  0  0  0  0
    5.2331    1.3838    0.3125 H   0  0  0  0  0  0  0  0  0  0  0  0
    3.5779    0.1936    1.7587 H   0  0  0  0  0  0  0  0  0  0  0  0
    3.3820    1.9264    1.7735 H   0  0  0  0  0  0  0  0  0  0  0  0
   -6.0257   -0.3977   -1.4104 H   0  0  0  0  0  0  0  0  0  0  0  0
   -4.8584   -1.8128    0.1929 H   0  0  0  0  0  0  0  0  0  0  0  0
   -2.5221    2.0215   -1.8712 H   0  0  0  0  0  0  0  0  0  0  0  0
    1.6488    2.9481    0.0730 H   0  0  0  0  0  0  0  0  0  0  0  0
    1.6306   -1.1389    1.3803 H   0  0  0  0  0  0  0  0  0  0  0  0
   -0.2338    3.7497   -0.6175 H   0  0  0  0  0  0  0  0  0  0  0  0
  1  5  1  0
  2 14  1  0
  3 21  1  0
  4 21  1  0
  5  6  1  0
  6  7  1  0
  7  8  1  0
  8 15  1  0
  9 10  2  0
  9 14  1  0
 10 17  1  0
 11 14  2  0
 11 16  1  0
 12 15  2  0
 12 18  1  0
 13 15  1  0
 13 19  2  0
 16 17  2  0
 16 20  1  0
 17 21  1  0
 18 20  2  0
 18 22  1  0
 19 20  1  0
 19 23  1  0
 21 23  1  0
  1 24  1  0
  1 25  1  0
  1 26  1  0
  2 27  1  0
  2 28  1  0
  2 29  1  0
  3 30  1  0
  3 31  1  0
  3 32  1  0
  4 33  1  0
  4 34  1  0
  4 35  1  0
  5 36  1  0
  5 37  1  0
  6 38  1  0
  6 39  1  0
  7 40  1  0
  7 41  1  0
  8 42  1  0
  8 43  1  0
  9 44  1  0
 10 45  1  0
 11 46  1  0
 12 47  1  0
 13 48  1  0
 22 49  1  0
M  END
