
     RDKit          3D

 49 51  0  0  0  0  0  0  0  0999 V2000
    3.8851    0.5868   -1.1644 C   0  0  0  0  0  0  0  0  0  0  0  0
    4.1008   -0.3680    1.1461 C   0  0  0  0  0  0  0  0  0  0  0  0
    3.4060    2.0161    0.7971 C   0  0  0  0  0  0  0  0  0  0  0  0
   -4.4931   -3.1122    0.1037 C   0  0  0  0  0  0  0  0  0  0  0  0
   -2.1183    3.3529   -1.5832 C   0  0  0  0  0  0  0  0  0  0  0  0
   -4.0044   -2.6056   -1.0957 C   0  0  0  0  0  0  0  0  0  0  0  0
   -3.8503   -2.8005    1.2984 C   0  0  0  0  0  0  0  0  0  0  0  0
   -0.9994    2.7046   -2.0957 C   0  0  0  0  0  0  0  0  0  0  0  0
   -2.8488    2.7590   -0.5603 C   0  0  0  0  0  0  0  0  0  0  0  0
   -2.8709   -1.7904   -1.0982 C   0  0  0  0  0  0  0  0  0  0  0  0
   -2.7152   -1.9832    1.2980 C   0  0  0  0  0  0  0  0  0  0  0  0
   -0.6129    1.4581   -1.5923 C   0  0  0  0  0  0  0  0  0  0  0  0
   -2.4609    1.5153   -0.0555 C   0  0  0  0  0  0  0  0  0  0  0  0
   -0.3049   -0.2731    1.4272 C   0  0  0  0  0  0  0  0  0  0  0  0
    0.1299   -1.3586   -0.7780 C   0  0  0  0  0  0  0  0  0  0  0  0
    1.0156    0.5118    1.3336 C   0  0  0  0  0  0  0  0  0  0  0  0
    1.5786   -1.1947   -0.2853 C   0  0  0  0  0  0  0  0  0  0  0  0
   -2.1990   -1.4632    0.0991 C   0  0  0  0  0  0  0  0  0  0  0  0
   -1.3392    0.8284   -0.5675 C   0  0  0  0  0  0  0  0  0  0  0  0
    3.2665    0.5729    0.2538 C   0  0  0  0  0  0  0  0  0  0  0  0
   -0.9386   -0.5506    0.0364 C   0  0  0  0  0  0  0  0  0  0  0  0
    1.8404    0.1683    0.1641 N   0  0  0  0  0  0  0  0  0  0  0  0
    3.2822    1.1902   -1.8533 H   0  0  0  0  0  0  0  0  0  0  0  0
    4.8934    1.0180   -1.1494 H   0  0  0  0  0  0  0  0  0  0  0  0
    3.9844   -0.4164   -1.5904 H   0  0  0  0  0  0  0  0  0  0  0  0
    5.1407   -0.0257    1.2073 H   0  0  0  0  0  0  0  0  0  0  0  0
    4.1238   -1.3901    0.7528 H   0  0  0  0  0  0  0  0  0  0  0  0
    3.7129   -0.4097    2.1692 H   0  0  0  0  0  0  0  0  0  0  0  0
    4.4470    2.3574    0.7471 H   0  0  0  0  0  0  0  0  0  0  0  0
    3.1009    2.0954    1.8462 H   0  0  0  0  0  0  0  0  0  0  0  0
    2.8037    2.7206    0.2113 H   0  0  0  0  0  0  0  0  0  0  0  0
   -5.3759   -3.7456    0.1082 H   0  0  0  0  0  0  0  0  0  0  0  0
   -2.4159    4.3208   -1.9760 H   0  0  0  0  0  0  0  0  0  0  0  0
   -4.5053   -2.8393   -2.0313 H   0  0  0  0  0  0  0  0  0  0  0  0
   -4.2337   -3.1925    2.2370 H   0  0  0  0  0  0  0  0  0  0  0  0
   -0.4159    3.1705   -2.8856 H   0  0  0  0  0  0  0  0  0  0  0  0
   -3.7220    3.2604   -0.1519 H   0  0  0  0  0  0  0  0  0  0  0  0
   -2.5140   -1.3972   -2.0489 H   0  0  0  0  0  0  0  0  0  0  0  0
   -2.2548   -1.7649    2.2569 H   0  0  0  0  0  0  0  0  0  0  0  0
    0.2854    1.0082   -2.0058 H   0  0  0  0  0  0  0  0  0  0  0  0
   -3.0536    1.0782    0.7459 H   0  0  0  0  0  0  0  0  0  0  0  0
   -0.9918    0.2706    2.0887 H   0  0  0  0  0  0  0  0  0  0  0  0
   -0.0897   -1.2267    1.9304 H   0  0  0  0  0  0  0  0  0  0  0  0
   -0.0767   -2.4370   -0.7089 H   0  0  0  0  0  0  0  0  0  0  0  0
    0.0673   -1.1334   -1.8494 H   0  0  0  0  0  0  0  0  0  0  0  0
    1.5574    0.3341    2.2702 H   0  0  0  0  0  0  0  0  0  0  0  0
    0.7808    1.5823    1.2990 H   0  0  0  0  0  0  0  0  0  0  0  0
    1.7765   -1.9108    0.5234 H   0  0  0  0  0  0  0  0  0  0  0  0
    2.2259   -1.4912   -1.1160 H   0  0  0  0  0  0  0  0  0  0  0  0
  1 20  1  0
  2 20  1  0
  3 20  1  0
  4  6  2  0
  4  7  1  0
  5  8  2  0
  5  9  1  0
  6 10  1  0
  7 11  2  0
  8 12  1  0
  9 13  2  0
 10 18  2  0
 11 18  1  0
 12 19  2  0
 13 19  1  0
 14 16  1  0
 14 21  1  0
 15 17  1  0
 15 21  1  0
 16 22  1  0
 17 22  1  0
 18 21  1  0
 19 21  1  0
 20 22  1  0
  1 23  1  0
  1 24  1  0
  1 25  1  0
  2 26  1  0
  2 27  1  0
  2 28  1  0
  3 29  1  0
  3 30  1  0
  3 31  1  0
  4 32  1  0
  5 33  1  0
  6 34  1  0
  7 35  1  0
  8 36  1  0
  9 37  1  0
 10 38  1  0
 11 39  1  0
 12 40  1  0
 13 41  1  0
 14 42  1  0
 14 43  1  0
 15 44  1  0
 15 45  1  0
 16 46  1  0
 16 47  1  0
 17 48  1  0
 17 49  1  0
M  END
