
     RDKit          3D

 56 57  0  0  0  0  0  0  0  0999 V2000
    6.2152    3.3723   -0.6785 C   0  0  0  0  0  0  0  0  0  0  0  0
   -5.2269    3.2864   -0.7969 C   0  0  0  0  0  0  0  0  0  0  0  0
   -4.9047   -1.5580   -1.0984 C   0  0  0  0  0  0  0  0  0  0  0  0
   -3.3742   -3.1586    0.0426 C   0  0  0  0  0  0  0  0  0  0  0  0
   -2.7333   -2.1839   -2.1709 C   0  0  0  0  0  0  0  0  0  0  0  0
    4.9770    3.0402   -0.2927 C   0  0  0  0  0  0  0  0  0  0  0  0
   -3.9427    2.6000   -1.2191 C   0  0  0  0  0  0  0  0  0  0  0  0
    4.6205    1.7427    0.3739 C   0  0  0  0  0  0  0  0  0  0  0  0
    2.4397   -3.5890   -0.2373 C   0  0  0  0  0  0  0  0  0  0  0  0
    3.7332   -3.1840    0.0789 C   0  0  0  0  0  0  0  0  0  0  0  0
    4.0676    1.9794    1.7813 C   0  0  0  0  0  0  0  0  0  0  0  0
    1.3353   -2.8314    0.1689 C   0  0  0  0  0  0  0  0  0  0  0  0
    3.9627   -2.0189    0.8158 C   0  0  0  0  0  0  0  0  0  0  0  0
    3.7866    0.6776    2.5326 C   0  0  0  0  0  0  0  0  0  0  0  0
    1.5405   -1.6414    0.8998 C   0  0  0  0  0  0  0  0  0  0  0  0
    2.8461   -1.2703    1.2183 C   0  0  0  0  0  0  0  0  0  0  0  0
    0.7092   -0.6243    1.4708 C   0  0  0  0  0  0  0  0  0  0  0  0
   -2.7421   -0.7106   -0.0542 C   0  0  0  0  0  0  0  0  0  0  0  0
   -0.7588   -0.4999    1.4120 C   0  0  0  0  0  0  0  0  0  0  0  0
   -2.7535    0.6136   -0.8353 C   0  0  0  0  0  0  0  0  0  0  0  0
   -3.4219   -1.8825   -0.8260 C   0  0  0  0  0  0  0  0  0  0  0  0
   -1.3359   -1.0003    0.2549 N   0  0  0  0  0  0  0  0  0  0  0  0
    1.4523    0.2909    2.1189 N   0  0  0  0  0  0  0  0  0  0  0  0
    2.7212   -0.1132    1.9445 N   0  0  0  0  0  0  0  0  0  0  0  0
   -1.4296    0.0348    2.2917 O   0  0  0  0  0  0  0  0  0  0  0  0
   -1.8786    0.9500   -1.6271 O   0  0  0  0  0  0  0  0  0  0  0  0
   -3.8698    1.3378   -0.5468 O   0  0  0  0  0  0  0  0  0  0  0  0
    7.0609    2.7095   -0.5251 H   0  0  0  0  0  0  0  0  0  0  0  0
    6.4073    4.3252   -1.1627 H   0  0  0  0  0  0  0  0  0  0  0  0
   -6.0951    2.6692   -1.0505 H   0  0  0  0  0  0  0  0  0  0  0  0
   -5.3291    4.2586   -1.2870 H   0  0  0  0  0  0  0  0  0  0  0  0
   -5.2467    3.4333    0.2881 H   0  0  0  0  0  0  0  0  0  0  0  0
   -5.0152   -0.7234   -1.7987 H   0  0  0  0  0  0  0  0  0  0  0  0
   -5.4226   -2.4174   -1.5401 H   0  0  0  0  0  0  0  0  0  0  0  0
   -5.4289   -1.2962   -0.1725 H   0  0  0  0  0  0  0  0  0  0  0  0
   -3.8492   -2.9908    1.0158 H   0  0  0  0  0  0  0  0  0  0  0  0
   -3.8995   -3.9887   -0.4438 H   0  0  0  0  0  0  0  0  0  0  0  0
   -2.3452   -3.4875    0.2233 H   0  0  0  0  0  0  0  0  0  0  0  0
   -3.2259   -3.0187   -2.6833 H   0  0  0  0  0  0  0  0  0  0  0  0
   -1.6830   -2.4627   -2.0364 H   0  0  0  0  0  0  0  0  0  0  0  0
   -2.7713   -1.3233   -2.8464 H   0  0  0  0  0  0  0  0  0  0  0  0
    4.1617    3.7382   -0.4766 H   0  0  0  0  0  0  0  0  0  0  0  0
   -3.0824    3.2183   -0.9396 H   0  0  0  0  0  0  0  0  0  0  0  0
   -3.9477    2.4414   -2.3033 H   0  0  0  0  0  0  0  0  0  0  0  0
    5.4959    1.0840    0.4264 H   0  0  0  0  0  0  0  0  0  0  0  0
    3.8743    1.2354   -0.2480 H   0  0  0  0  0  0  0  0  0  0  0  0
    2.2843   -4.5062   -0.8010 H   0  0  0  0  0  0  0  0  0  0  0  0
    4.5789   -3.7869   -0.2454 H   0  0  0  0  0  0  0  0  0  0  0  0
    3.1531    2.5836    1.7230 H   0  0  0  0  0  0  0  0  0  0  0  0
    4.7932    2.5611    2.3642 H   0  0  0  0  0  0  0  0  0  0  0  0
    0.3340   -3.1767   -0.0721 H   0  0  0  0  0  0  0  0  0  0  0  0
    4.9752   -1.7170    1.0636 H   0  0  0  0  0  0  0  0  0  0  0  0
    4.6885    0.0603    2.5945 H   0  0  0  0  0  0  0  0  0  0  0  0
    3.4807    0.9003    3.5620 H   0  0  0  0  0  0  0  0  0  0  0  0
   -3.2709   -0.5433    0.8926 H   0  0  0  0  0  0  0  0  0  0  0  0
   -0.7106   -1.0355   -0.5429 H   0  0  0  0  0  0  0  0  0  0  0  0
  1  6  2  3
  2  7  1  0
  3 21  1  0
  4 21  1  0
  5 21  1  0
  6  8  1  0
  7 27  1  0
  8 11  1  0
  9 10  2  0
  9 12  1  0
 10 13  1  0
 11 14  1  0
 12 15  2  0
 13 16  2  0
 14 24  1  0
 15 16  1  0
 15 17  1  0
 16 24  1  0
 17 19  1  0
 17 23  2  0
 18 20  1  0
 18 21  1  0
 18 22  1  0
 19 22  1  0
 19 25  2  0
 20 26  2  0
 20 27  1  0
 23 24  1  0
  1 28  1  0
  1 29  1  0
  2 30  1  0
  2 31  1  0
  2 32  1  0
  3 33  1  0
  3 34  1  0
  3 35  1  0
  4 36  1  0
  4 37  1  0
  4 38  1  0
  5 39  1  0
  5 40  1  0
  5 41  1  0
  6 42  1  0
  7 43  1  0
  7 44  1  0
  8 45  1  0
  8 46  1  0
  9 47  1  0
 10 48  1  0
 11 49  1  0
 11 50  1  0
 12 51  1  0
 13 52  1  0
 14 53  1  0
 14 54  1  0
 18 55  1  0
 22 56  1  0
M  END
