
     RDKit          3D

 52 55  0  0  0  0  0  0  0  0999 V2000
   -2.1915    4.0867   -0.9146 C   0  0  0  0  0  0  0  0  0  0  0  0
    5.3408   -0.3060    0.3145 C   0  0  0  0  0  0  0  0  0  0  0  0
   -2.0557    2.9988   -1.7711 C   0  0  0  0  0  0  0  0  0  0  0  0
   -2.0372    3.9077    0.4555 C   0  0  0  0  0  0  0  0  0  0  0  0
    4.8244   -0.2278   -1.1134 C   0  0  0  0  0  0  0  0  0  0  0  0
    4.5875    0.6701    1.2200 C   0  0  0  0  0  0  0  0  0  0  0  0
   -1.7676    1.7295   -1.2585 C   0  0  0  0  0  0  0  0  0  0  0  0
   -1.7494    2.6398    0.9667 C   0  0  0  0  0  0  0  0  0  0  0  0
   -3.2831   -3.3113   -1.0215 C   0  0  0  0  0  0  0  0  0  0  0  0
   -3.6075   -2.0753   -1.4316 C   0  0  0  0  0  0  0  0  0  0  0  0
    0.2681    0.0780    0.9799 C   0  0  0  0  0  0  0  0  0  0  0  0
    3.3136   -0.4922   -1.1799 C   0  0  0  0  0  0  0  0  0  0  0  0
    3.2040    1.0560    0.6799 C   0  0  0  0  0  0  0  0  0  0  0  0
    1.1502    0.1144   -0.2772 C   0  0  0  0  0  0  0  0  0  0  0  0
   -3.7749   -2.0737    0.8645 C   0  0  0  0  0  0  0  0  0  0  0  0
   -1.4783   -2.4827    0.4736 C   0  0  0  0  0  0  0  0  0  0  0  0
   -2.8440   -3.2009    0.4194 C   0  0  0  0  0  0  0  0  0  0  0  0
   -3.3461   -1.1349   -0.2685 C   0  0  0  0  0  0  0  0  0  0  0  0
   -1.6156    1.5187    0.1237 C   0  0  0  0  0  0  0  0  0  0  0  0
   -1.7919   -1.0603   -0.1157 C   0  0  0  0  0  0  0  0  0  0  0  0
   -1.2667    0.1447    0.7227 C   0  0  0  0  0  0  0  0  0  0  0  0
    2.5745   -0.1003    0.0367 N   0  0  0  0  0  0  0  0  0  0  0  0
   -1.9044    0.0930    2.0135 O   0  0  0  0  0  0  0  0  0  0  0  0
   -2.4176    5.0714   -1.3139 H   0  0  0  0  0  0  0  0  0  0  0  0
    6.4159   -0.0979    0.3493 H   0  0  0  0  0  0  0  0  0  0  0  0
    5.2065   -1.3281    0.6908 H   0  0  0  0  0  0  0  0  0  0  0  0
   -2.1734    3.1356   -2.8430 H   0  0  0  0  0  0  0  0  0  0  0  0
   -2.1427    4.7520    1.1315 H   0  0  0  0  0  0  0  0  0  0  0  0
    5.3549   -0.9463   -1.7483 H   0  0  0  0  0  0  0  0  0  0  0  0
    5.0384    0.7707   -1.5158 H   0  0  0  0  0  0  0  0  0  0  0  0
    4.4906    0.2211    2.2163 H   0  0  0  0  0  0  0  0  0  0  0  0
    5.1794    1.5846    1.3476 H   0  0  0  0  0  0  0  0  0  0  0  0
   -1.6614    0.9155   -1.9698 H   0  0  0  0  0  0  0  0  0  0  0  0
   -1.6350    2.5273    2.0436 H   0  0  0  0  0  0  0  0  0  0  0  0
   -3.3025   -4.2153   -1.6107 H   0  0  0  0  0  0  0  0  0  0  0  0
   -3.9336   -1.7829   -2.4181 H   0  0  0  0  0  0  0  0  0  0  0  0
    0.5398    0.8999    1.6547 H   0  0  0  0  0  0  0  0  0  0  0  0
    0.5021   -0.8310    1.5497 H   0  0  0  0  0  0  0  0  0  0  0  0
    2.9256    0.0266   -2.0666 H   0  0  0  0  0  0  0  0  0  0  0  0
    3.1479   -1.5644   -1.3414 H   0  0  0  0  0  0  0  0  0  0  0  0
    2.6168    1.4241    1.5272 H   0  0  0  0  0  0  0  0  0  0  0  0
    3.2908    1.8925   -0.0262 H   0  0  0  0  0  0  0  0  0  0  0  0
    0.8242   -0.6929   -0.9424 H   0  0  0  0  0  0  0  0  0  0  0  0
    1.0228    1.0563   -0.8229 H   0  0  0  0  0  0  0  0  0  0  0  0
   -4.8381   -2.3458    0.8233 H   0  0  0  0  0  0  0  0  0  0  0  0
   -3.5545   -1.7028    1.8687 H   0  0  0  0  0  0  0  0  0  0  0  0
   -1.1267   -2.4353    1.5086 H   0  0  0  0  0  0  0  0  0  0  0  0
   -0.7159   -2.9969   -0.1222 H   0  0  0  0  0  0  0  0  0  0  0  0
   -2.9227   -4.1226    0.9967 H   0  0  0  0  0  0  0  0  0  0  0  0
   -3.8940   -0.1941   -0.3231 H   0  0  0  0  0  0  0  0  0  0  0  0
   -1.3366   -1.0178   -1.1135 H   0  0  0  0  0  0  0  0  0  0  0  0
   -1.4499   -0.5755    2.5512 H   0  0  0  0  0  0  0  0  0  0  0  0
  1  3  2  0
  1  4  1  0
  2  5  1  0
  2  6  1  0
  3  7  1  0
  4  8  2  0
  5 12  1  0
  6 13  1  0
  7 19  2  0
  8 19  1  0
  9 10  2  0
  9 17  1  0
 10 18  1  0
 11 14  1  0
 11 21  1  0
 12 22  1  0
 13 22  1  0
 14 22  1  0
 15 17  1  0
 15 18  1  0
 16 17  1  0
 16 20  1  0
 18 20  1  0
 19 21  1  0
 20 21  1  0
 21 23  1  0
  1 24  1  0
  2 25  1  0
  2 26  1  0
  3 27  1  0
  4 28  1  0
  5 29  1  0
  5 30  1  0
  6 31  1  0
  6 32  1  0
  7 33  1  0
  8 34  1  0
  9 35  1  0
 10 36  1  0
 11 37  1  0
 11 38  1  0
 12 39  1  0
 12 40  1  0
 13 41  1  0
 13 42  1  0
 14 43  1  0
 14 44  1  0
 15 45  1  0
 15 46  1  0
 16 47  1  0
 16 48  1  0
 17 49  1  0
 18 50  1  0
 20 51  1  0
 23 52  1  0
M  END
