
     RDKit          3D

 53 55  0  0  0  0  0  0  0  0999 V2000
    7.1843    1.7297   -2.9436 C   0  0  0  0  0  0  0  0  0  0  0  0
   -4.0364    0.5809    3.7813 C   0  0  0  0  0  0  0  0  0  0  0  0
   -1.4142   -2.5281    1.7998 C   0  0  0  0  0  0  0  0  0  0  0  0
   -2.6661   -3.4882   -0.1305 C   0  0  0  0  0  0  0  0  0  0  0  0
    5.7750    1.7876   -2.3738 C   0  0  0  0  0  0  0  0  0  0  0  0
    5.3936    0.4710   -1.6963 C   0  0  0  0  0  0  0  0  0  0  0  0
    4.0267    0.5158   -1.0073 C   0  0  0  0  0  0  0  0  0  0  0  0
    2.8601    0.6797   -1.9850 C   0  0  0  0  0  0  0  0  0  0  0  0
   -5.0411   -0.0130    1.5232 C   0  0  0  0  0  0  0  0  0  0  0  0
   -4.2855   -1.2963    1.1981 C   0  0  0  0  0  0  0  0  0  0  0  0
   -2.7981    1.1064    1.6892 C   0  0  0  0  0  0  0  0  0  0  0  0
    0.9517    1.7364   -0.7102 C   0  0  0  0  0  0  0  0  0  0  0  0
    0.8580   -0.6167   -1.1623 C   0  0  0  0  0  0  0  0  0  0  0  0
   -4.1643    0.9704    2.3076 C   0  0  0  0  0  0  0  0  0  0  0  0
    1.5305    0.6000   -1.2778 C   0  0  0  0  0  0  0  0  0  0  0  0
   -2.2832    0.2571    0.7794 C   0  0  0  0  0  0  0  0  0  0  0  0
   -3.0034   -1.0214    0.3814 C   0  0  0  0  0  0  0  0  0  0  0  0
   -0.2804    1.6532   -0.0435 C   0  0  0  0  0  0  0  0  0  0  0  0
   -0.3656   -0.7029   -0.4832 C   0  0  0  0  0  0  0  0  0  0  0  0
   -0.9621    0.4275    0.1090 C   0  0  0  0  0  0  0  0  0  0  0  0
   -2.0012   -2.2095    0.4102 C   0  0  0  0  0  0  0  0  0  0  0  0
   -0.8195    2.8240    0.4268 O   0  0  0  0  0  0  0  0  0  0  0  0
   -0.9028   -1.9666   -0.4912 O   0  0  0  0  0  0  0  0  0  0  0  0
    7.4369    2.6787   -3.4268 H   0  0  0  0  0  0  0  0  0  0  0  0
    7.9198    1.5446   -2.1543 H   0  0  0  0  0  0  0  0  0  0  0  0
    7.2729    0.9339   -3.6901 H   0  0  0  0  0  0  0  0  0  0  0  0
   -3.4786    1.3427    4.3378 H   0  0  0  0  0  0  0  0  0  0  0  0
   -3.5123   -0.3721    3.9109 H   0  0  0  0  0  0  0  0  0  0  0  0
   -5.0243    0.4899    4.2453 H   0  0  0  0  0  0  0  0  0  0  0  0
   -0.6492   -3.3100    1.7200 H   0  0  0  0  0  0  0  0  0  0  0  0
   -0.9121   -1.6628    2.2441 H   0  0  0  0  0  0  0  0  0  0  0  0
   -2.1762   -2.8768    2.5025 H   0  0  0  0  0  0  0  0  0  0  0  0
   -3.4635   -3.8517    0.5248 H   0  0  0  0  0  0  0  0  0  0  0  0
   -1.9287   -4.2921   -0.2440 H   0  0  0  0  0  0  0  0  0  0  0  0
   -3.0858   -3.3152   -1.1282 H   0  0  0  0  0  0  0  0  0  0  0  0
    5.7129    2.6102   -1.6521 H   0  0  0  0  0  0  0  0  0  0  0  0
    5.0781    2.0136   -3.1877 H   0  0  0  0  0  0  0  0  0  0  0  0
    5.4085   -0.3429   -2.4315 H   0  0  0  0  0  0  0  0  0  0  0  0
    6.1494    0.2258   -0.9397 H   0  0  0  0  0  0  0  0  0  0  0  0
    4.0148    1.3266   -0.2678 H   0  0  0  0  0  0  0  0  0  0  0  0
    3.8993   -0.4172   -0.4430 H   0  0  0  0  0  0  0  0  0  0  0  0
    2.9241    1.6407   -2.5088 H   0  0  0  0  0  0  0  0  0  0  0  0
    2.9074   -0.0932   -2.7624 H   0  0  0  0  0  0  0  0  0  0  0  0
   -5.3649    0.4565    0.5847 H   0  0  0  0  0  0  0  0  0  0  0  0
   -5.9531   -0.2472    2.0849 H   0  0  0  0  0  0  0  0  0  0  0  0
   -4.0596   -1.8193    2.1325 H   0  0  0  0  0  0  0  0  0  0  0  0
   -4.9461   -1.9601    0.6272 H   0  0  0  0  0  0  0  0  0  0  0  0
   -2.2388    1.9769    2.0189 H   0  0  0  0  0  0  0  0  0  0  0  0
    1.4647    2.6903   -0.8007 H   0  0  0  0  0  0  0  0  0  0  0  0
    1.2807   -1.5191   -1.5994 H   0  0  0  0  0  0  0  0  0  0  0  0
   -4.6541    1.9518    2.2643 H   0  0  0  0  0  0  0  0  0  0  0  0
   -3.3202   -0.8672   -0.6625 H   0  0  0  0  0  0  0  0  0  0  0  0
   -0.2582    3.5678    0.1577 H   0  0  0  0  0  0  0  0  0  0  0  0
  1  5  1  0
  2 14  1  0
  3 21  1  0
  4 21  1  0
  5  6  1  0
  6  7  1  0
  7  8  1  0
  8 15  1  0
  9 10  1  0
  9 14  1  0
 10 17  1  0
 11 14  1  0
 11 16  2  0
 12 15  2  0
 12 18  1  0
 13 15  1  0
 13 19  2  0
 16 17  1  0
 16 20  1  0
 17 21  1  0
 18 20  2  0
 18 22  1  0
 19 20  1  0
 19 23  1  0
 21 23  1  0
  1 24  1  0
  1 25  1  0
  1 26  1  0
  2 27  1  0
  2 28  1  0
  2 29  1  0
  3 30  1  0
  3 31  1  0
  3 32  1  0
  4 33  1  0
  4 34  1  0
  4 35  1  0
  5 36  1  0
  5 37  1  0
  6 38  1  0
  6 39  1  0
  7 40  1  0
  7 41  1  0
  8 42  1  0
  8 43  1  0
  9 44  1  0
  9 45  1  0
 10 46  1  0
 10 47  1  0
 11 48  1  0
 12 49  1  0
 13 50  1  0
 14 51  1  0
 17 52  1  0
 22 53  1  0
M  END
