
     RDKit          3D

 53 54  0  0  0  0  0  0  0  0999 V2000
    6.7731    0.7251   -0.6301 C   0  0  0  0  0  0  0  0  0  0  0  0
   -3.1107   -0.3903    2.2266 C   0  0  0  0  0  0  0  0  0  0  0  0
   -3.3437    2.0461    2.4817 C   0  0  0  0  0  0  0  0  0  0  0  0
   -4.8931   -1.9767   -2.3306 C   0  0  0  0  0  0  0  0  0  0  0  0
    5.3821    0.7197   -1.2447 C   0  0  0  0  0  0  0  0  0  0  0  0
    4.6927   -0.6463   -1.1826 C   0  0  0  0  0  0  0  0  0  0  0  0
    4.4617   -1.2101    0.2268 C   0  0  0  0  0  0  0  0  0  0  0  0
    3.5846   -0.3444    1.1405 C   0  0  0  0  0  0  0  0  0  0  0  0
   -4.8034    0.3075   -1.3465 C   0  0  0  0  0  0  0  0  0  0  0  0
   -4.1613    1.4429   -0.6016 C   0  0  0  0  0  0  0  0  0  0  0  0
   -2.7954   -1.1599   -1.1253 C   0  0  0  0  0  0  0  0  0  0  0  0
    1.6759    0.9222    0.0715 C   0  0  0  0  0  0  0  0  0  0  0  0
    1.2763   -1.3197    0.8302 C   0  0  0  0  0  0  0  0  0  0  0  0
   -3.1078    0.8155    1.6347 C   0  0  0  0  0  0  0  0  0  0  0  0
   -4.2036   -0.8678   -1.5912 C   0  0  0  0  0  0  0  0  0  0  0  0
    2.1522   -0.2399    0.6781 C   0  0  0  0  0  0  0  0  0  0  0  0
   -2.8454    1.1007    0.1470 C   0  0  0  0  0  0  0  0  0  0  0  0
   -1.9998    0.1018   -0.7136 C   0  0  0  0  0  0  0  0  0  0  0  0
    0.3487    0.9938   -0.3666 C   0  0  0  0  0  0  0  0  0  0  0  0
   -0.0528   -1.2378    0.3879 C   0  0  0  0  0  0  0  0  0  0  0  0
   -0.5596   -0.0763   -0.2132 C   0  0  0  0  0  0  0  0  0  0  0  0
   -0.0731    2.1442   -0.9838 O   0  0  0  0  0  0  0  0  0  0  0  0
   -0.8417   -2.3415    0.5513 O   0  0  0  0  0  0  0  0  0  0  0  0
    7.4096   -0.0360   -1.0937 H   0  0  0  0  0  0  0  0  0  0  0  0
    7.2465    1.7004   -0.7806 H   0  0  0  0  0  0  0  0  0  0  0  0
    6.7368    0.5376    0.4472 H   0  0  0  0  0  0  0  0  0  0  0  0
   -3.2912   -0.4976    3.2920 H   0  0  0  0  0  0  0  0  0  0  0  0
   -2.9386   -1.3109    1.6876 H   0  0  0  0  0  0  0  0  0  0  0  0
   -3.4617    1.8017    3.5430 H   0  0  0  0  0  0  0  0  0  0  0  0
   -2.4964    2.7355    2.3977 H   0  0  0  0  0  0  0  0  0  0  0  0
   -4.2518    2.5680    2.1632 H   0  0  0  0  0  0  0  0  0  0  0  0
   -4.9407   -2.8759   -1.7087 H   0  0  0  0  0  0  0  0  0  0  0  0
   -4.3469   -2.2149   -3.2489 H   0  0  0  0  0  0  0  0  0  0  0  0
   -5.9173   -1.7100   -2.6112 H   0  0  0  0  0  0  0  0  0  0  0  0
    4.7674    1.4844   -0.7587 H   0  0  0  0  0  0  0  0  0  0  0  0
    5.4654    1.0180   -2.2973 H   0  0  0  0  0  0  0  0  0  0  0  0
    5.2971   -1.3699   -1.7461 H   0  0  0  0  0  0  0  0  0  0  0  0
    3.7346   -0.5789   -1.7127 H   0  0  0  0  0  0  0  0  0  0  0  0
    4.0143   -2.2080    0.1250 H   0  0  0  0  0  0  0  0  0  0  0  0
    5.4299   -1.3670    0.7178 H   0  0  0  0  0  0  0  0  0  0  0  0
    4.0197    0.6540    1.2596 H   0  0  0  0  0  0  0  0  0  0  0  0
    3.5853   -0.7811    2.1476 H   0  0  0  0  0  0  0  0  0  0  0  0
   -5.8154    0.4855   -1.7040 H   0  0  0  0  0  0  0  0  0  0  0  0
   -3.9477    2.2285   -1.3397 H   0  0  0  0  0  0  0  0  0  0  0  0
   -4.9034    1.8667    0.0843 H   0  0  0  0  0  0  0  0  0  0  0  0
   -2.8910   -1.8869   -0.3183 H   0  0  0  0  0  0  0  0  0  0  0  0
   -2.2455   -1.6610   -1.9335 H   0  0  0  0  0  0  0  0  0  0  0  0
    2.3439    1.7669   -0.0634 H   0  0  0  0  0  0  0  0  0  0  0  0
    1.6426   -2.2315    1.2932 H   0  0  0  0  0  0  0  0  0  0  0  0
   -2.2749    2.0411    0.1609 H   0  0  0  0  0  0  0  0  0  0  0  0
   -1.8655    0.6127   -1.6835 H   0  0  0  0  0  0  0  0  0  0  0  0
    0.6780    2.7524   -1.0681 H   0  0  0  0  0  0  0  0  0  0  0  0
   -0.3394   -3.0320    1.0113 H   0  0  0  0  0  0  0  0  0  0  0  0
  1  5  1  0
  2 14  2  3
  3 14  1  0
  4 15  1  0
  5  6  1  0
  6  7  1  0
  7  8  1  0
  8 16  1  0
  9 10  1  0
  9 15  2  0
 10 17  1  0
 11 15  1  0
 11 18  1  0
 12 16  2  0
 12 19  1  0
 13 16  1  0
 13 20  2  0
 14 17  1  0
 17 18  1  0
 18 21  1  0
 19 21  2  0
 19 22  1  0
 20 21  1  0
 20 23  1  0
  1 24  1  0
  1 25  1  0
  1 26  1  0
  2 27  1  0
  2 28  1  0
  3 29  1  0
  3 30  1  0
  3 31  1  0
  4 32  1  0
  4 33  1  0
  4 34  1  0
  5 35  1  0
  5 36  1  0
  6 37  1  0
  6 38  1  0
  7 39  1  0
  7 40  1  0
  8 41  1  0
  8 42  1  0
  9 43  1  0
 10 44  1  0
 10 45  1  0
 11 46  1  0
 11 47  1  0
 12 48  1  0
 13 49  1  0
 17 50  1  0
 18 51  1  0
 22 52  1  0
 23 53  1  0
M  END
