
     RDKit          3D

 55 56  0  0  0  0  0  0  0  0999 V2000
    8.1430    0.5614   -0.8922 C   0  0  0  0  0  0  0  0  0  0  0  0
   -3.8597    2.1917   -1.0316 C   0  0  0  0  0  0  0  0  0  0  0  0
   -3.0638    0.8602    0.9183 C   0  0  0  0  0  0  0  0  0  0  0  0
   -4.9730   -1.4667    0.0239 C   0  0  0  0  0  0  0  0  0  0  0  0
   -6.1300    0.6966    0.3981 C   0  0  0  0  0  0  0  0  0  0  0  0
    6.7487    0.0184   -1.1620 C   0  0  0  0  0  0  0  0  0  0  0  0
    5.7015    0.7038   -0.2848 C   0  0  0  0  0  0  0  0  0  0  0  0
   -0.2022   -2.8937    1.5370 C   0  0  0  0  0  0  0  0  0  0  0  0
    1.0854   -2.7365    2.0259 C   0  0  0  0  0  0  0  0  0  0  0  0
    4.3011    0.1549   -0.5590 C   0  0  0  0  0  0  0  0  0  0  0  0
   -0.7256   -1.9888    0.6045 C   0  0  0  0  0  0  0  0  0  0  0  0
    1.8805   -1.6758    1.5952 C   0  0  0  0  0  0  0  0  0  0  0  0
    3.2573    0.8420    0.3193 C   0  0  0  0  0  0  0  0  0  0  0  0
   -2.6802    0.0031   -1.4551 C   0  0  0  0  0  0  0  0  0  0  0  0
    1.0281    0.9159   -0.7856 C   0  0  0  0  0  0  0  0  0  0  0  0
    0.0448   -0.8929    0.1459 C   0  0  0  0  0  0  0  0  0  0  0  0
   -0.1597    0.1998   -0.7741 C   0  0  0  0  0  0  0  0  0  0  0  0
    1.3468   -0.7708    0.6602 C   0  0  0  0  0  0  0  0  0  0  0  0
   -1.2975    0.6181   -1.6086 C   0  0  0  0  0  0  0  0  0  0  0  0
   -3.6664    0.7481   -0.4982 C   0  0  0  0  0  0  0  0  0  0  0  0
   -5.0656   -0.0083   -0.4627 C   0  0  0  0  0  0  0  0  0  0  0  0
    1.9150    0.3369    0.0728 N   0  0  0  0  0  0  0  0  0  0  0  0
   -1.1434    1.5009   -2.4591 O   0  0  0  0  0  0  0  0  0  0  0  0
   -5.6187   -0.0379   -1.7877 O   0  0  0  0  0  0  0  0  0  0  0  0
    8.8759    0.0575   -1.5300 H   0  0  0  0  0  0  0  0  0  0  0  0
    8.4320    0.3993    0.1511 H   0  0  0  0  0  0  0  0  0  0  0  0
    8.1928    1.6350   -1.1001 H   0  0  0  0  0  0  0  0  0  0  0  0
   -2.9141    2.7438   -1.0546 H   0  0  0  0  0  0  0  0  0  0  0  0
   -4.5296    2.7763   -0.3938 H   0  0  0  0  0  0  0  0  0  0  0  0
   -4.2700    2.1938   -2.0469 H   0  0  0  0  0  0  0  0  0  0  0  0
   -2.8597   -0.1207    1.3542 H   0  0  0  0  0  0  0  0  0  0  0  0
   -3.7316    1.3948    1.6011 H   0  0  0  0  0  0  0  0  0  0  0  0
   -2.1247    1.4235    0.9134 H   0  0  0  0  0  0  0  0  0  0  0  0
   -5.9622   -1.9407    0.0025 H   0  0  0  0  0  0  0  0  0  0  0  0
   -4.3491   -2.0811   -0.6315 H   0  0  0  0  0  0  0  0  0  0  0  0
   -4.5912   -1.5390    1.0460 H   0  0  0  0  0  0  0  0  0  0  0  0
   -7.0828    0.1543    0.3479 H   0  0  0  0  0  0  0  0  0  0  0  0
   -6.3559    1.7014    0.0289 H   0  0  0  0  0  0  0  0  0  0  0  0
   -5.8424    0.7590    1.4511 H   0  0  0  0  0  0  0  0  0  0  0  0
    6.7414   -1.0619   -0.9757 H   0  0  0  0  0  0  0  0  0  0  0  0
    6.5035    0.1669   -2.2200 H   0  0  0  0  0  0  0  0  0  0  0  0
    5.9535    0.5553    0.7723 H   0  0  0  0  0  0  0  0  0  0  0  0
    5.7157    1.7844   -0.4719 H   0  0  0  0  0  0  0  0  0  0  0  0
   -0.8114   -3.7276    1.8776 H   0  0  0  0  0  0  0  0  0  0  0  0
    1.4812   -3.4468    2.7477 H   0  0  0  0  0  0  0  0  0  0  0  0
    4.0477    0.2995   -1.6168 H   0  0  0  0  0  0  0  0  0  0  0  0
    4.2880   -0.9271   -0.3789 H   0  0  0  0  0  0  0  0  0  0  0  0
   -1.7354   -2.1638    0.2553 H   0  0  0  0  0  0  0  0  0  0  0  0
    2.8905   -1.5647    1.9775 H   0  0  0  0  0  0  0  0  0  0  0  0
    3.4771    0.7048    1.3838 H   0  0  0  0  0  0  0  0  0  0  0  0
    3.2422    1.9220    0.1295 H   0  0  0  0  0  0  0  0  0  0  0  0
   -2.5699   -1.0465   -1.1971 H   0  0  0  0  0  0  0  0  0  0  0  0
   -3.1042   -0.0126   -2.4689 H   0  0  0  0  0  0  0  0  0  0  0  0
    1.2926    1.8027   -1.3501 H   0  0  0  0  0  0  0  0  0  0  0  0
   -5.1663   -0.7224   -2.3075 H   0  0  0  0  0  0  0  0  0  0  0  0
  1  6  1  0
  2 20  1  0
  3 20  1  0
  4 21  1  0
  5 21  1  0
  6  7  1  0
  7 10  1  0
  8  9  2  0
  8 11  1  0
  9 12  1  0
 10 13  1  0
 11 16  2  0
 12 18  2  0
 13 22  1  0
 14 19  1  0
 14 20  1  0
 15 17  2  0
 15 22  1  0
 16 17  1  0
 16 18  1  0
 17 19  1  0
 18 22  1  0
 19 23  2  0
 20 21  1  0
 21 24  1  0
  1 25  1  0
  1 26  1  0
  1 27  1  0
  2 28  1  0
  2 29  1  0
  2 30  1  0
  3 31  1  0
  3 32  1  0
  3 33  1  0
  4 34  1  0
  4 35  1  0
  4 36  1  0
  5 37  1  0
  5 38  1  0
  5 39  1  0
  6 40  1  0
  6 41  1  0
  7 42  1  0
  7 43  1  0
  8 44  1  0
  9 45  1  0
 10 46  1  0
 10 47  1  0
 11 48  1  0
 12 49  1  0
 13 50  1  0
 13 51  1  0
 14 52  1  0
 14 53  1  0
 15 54  1  0
 24 55  1  0
M  END
