
     RDKit          3D

 28 29  0  0  0  0  0  0  0  0999 V2000
   -3.4437   -0.6103    0.8132 C   0  0  0  0  0  0  0  0  0  0  0  0
   -3.0309    0.7244    0.7813 C   0  0  0  0  0  0  0  0  0  0  0  0
    1.3195    0.0277   -1.6472 C   0  0  0  0  0  0  0  0  0  0  0  0
   -1.4388   -1.3165   -0.3646 C   0  0  0  0  0  0  0  0  0  0  0  0
    0.0229    2.0218   -0.6666 C   0  0  0  0  0  0  0  0  0  0  0  0
    0.1665    0.6732   -0.9307 C   0  0  0  0  0  0  0  0  0  0  0  0
   -2.6581   -1.6071    0.2507 C   0  0  0  0  0  0  0  0  0  0  0  0
   -0.9994    0.0242   -0.4072 C   0  0  0  0  0  0  0  0  0  0  0  0
    2.4641   -0.4488   -0.7378 C   0  0  0  0  0  0  0  0  0  0  0  0
   -1.8053    1.0090    0.1662 C   0  0  0  0  0  0  0  0  0  0  0  0
    3.1308    0.7359   -0.0258 C   0  0  0  0  0  0  0  0  0  0  0  0
    2.0368   -1.5004    0.2271 N   0  0  0  0  0  0  0  0  0  0  0  0
   -1.1623    2.2113   -0.0100 N   0  0  0  0  0  0  0  0  0  0  0  0
   -3.1194   -2.8908    0.3220 O   0  0  0  0  0  0  0  0  0  0  0  0
    3.4426    1.8060   -0.5250 O   0  0  0  0  0  0  0  0  0  0  0  0
    3.4283    0.4879    1.2717 O   0  0  0  0  0  0  0  0  0  0  0  0
   -4.3885   -0.8718    1.2827 H   0  0  0  0  0  0  0  0  0  0  0  0
   -3.6440    1.5051    1.2190 H   0  0  0  0  0  0  0  0  0  0  0  0
    0.9450   -0.8230   -2.2314 H   0  0  0  0  0  0  0  0  0  0  0  0
    1.7153    0.7415   -2.3823 H   0  0  0  0  0  0  0  0  0  0  0  0
   -0.8253   -2.0976   -0.8006 H   0  0  0  0  0  0  0  0  0  0  0  0
    0.6656    2.8629   -0.8958 H   0  0  0  0  0  0  0  0  0  0  0  0
    3.2448   -0.8994   -1.3622 H   0  0  0  0  0  0  0  0  0  0  0  0
    1.2741   -1.1102    0.7878 H   0  0  0  0  0  0  0  0  0  0  0  0
    2.7983   -1.6060    0.9042 H   0  0  0  0  0  0  0  0  0  0  0  0
   -1.5215    3.1038    0.2992 H   0  0  0  0  0  0  0  0  0  0  0  0
   -2.4634   -3.4734   -0.0956 H   0  0  0  0  0  0  0  0  0  0  0  0
    3.8461    1.3206    1.5764 H   0  0  0  0  0  0  0  0  0  0  0  0
  1  2  2  0
  1  7  1  0
  2 10  1  0
  3  6  1  0
  3  9  1  0
  4  7  2  0
  4  8  1  0
  5  6  2  0
  5 13  1  0
  6  8  1  0
  7 14  1  0
  8 10  2  0
  9 11  1  0
  9 12  1  0
 10 13  1  0
 11 15  2  0
 11 16  1  0
  1 17  1  0
  2 18  1  0
  3 19  1  0
  3 20  1  0
  4 21  1  0
  5 22  1  0
  9 23  1  0
 12 24  1  0
 12 25  1  0
 13 26  1  0
 14 27  1  0
 16 28  1  0
M  END
