
     RDKit          3D

 44 47  0  0  0  0  0  0  0  0999 V2000
   -5.9577   -2.7067    0.9164 C   0  0  0  0  0  0  0  0  0  0  0  0
    5.4919    1.6872   -1.1793 C   0  0  0  0  0  0  0  0  0  0  0  0
   -4.7941   -2.4430    1.0518 C   0  0  0  0  0  0  0  0  0  0  0  0
    5.2601    0.2004   -1.3727 C   0  0  0  0  0  0  0  0  0  0  0  0
   -2.4944    3.1941   -2.0208 C   0  0  0  0  0  0  0  0  0  0  0  0
   -3.1970    3.7643   -0.9580 C   0  0  0  0  0  0  0  0  0  0  0  0
   -1.7422    2.0337   -1.8217 C   0  0  0  0  0  0  0  0  0  0  0  0
   -3.1412    3.1799    0.3074 C   0  0  0  0  0  0  0  0  0  0  0  0
   -2.6750   -2.7105    2.2450 C   0  0  0  0  0  0  0  0  0  0  0  0
   -1.3167   -2.4179    2.3947 C   0  0  0  0  0  0  0  0  0  0  0  0
   -2.7909   -1.2276    0.3431 C   0  0  0  0  0  0  0  0  0  0  0  0
    1.1252   -0.9864   -0.8026 C   0  0  0  0  0  0  0  0  0  0  0  0
    1.4770   -1.4538    2.7619 C   0  0  0  0  0  0  0  0  0  0  0  0
   -3.4082   -2.1282    1.2127 C   0  0  0  0  0  0  0  0  0  0  0  0
   -1.7007    1.4324   -0.5571 C   0  0  0  0  0  0  0  0  0  0  0  0
   -1.4315   -0.9011    0.4974 C   0  0  0  0  0  0  0  0  0  0  0  0
   -2.3904    2.0230    0.5040 C   0  0  0  0  0  0  0  0  0  0  0  0
   -0.6799   -1.5359    1.5048 C   0  0  0  0  0  0  0  0  0  0  0  0
    1.5961   -1.0352    0.5996 C   0  0  0  0  0  0  0  0  0  0  0  0
   -0.8829    0.1961   -0.3676 C   0  0  0  0  0  0  0  0  0  0  0  0
    2.8453   -0.8883    1.1947 C   0  0  0  0  0  0  0  0  0  0  0  0
    4.1355   -0.5197    0.5924 C   0  0  0  0  0  0  0  0  0  0  0  0
   -2.3338    1.5051    1.7398 F   0  0  0  0  0  0  0  0  0  0  0  0
    0.2595    0.1660   -0.9694 N   0  0  0  0  0  0  0  0  0  0  0  0
    2.7416   -1.1845    2.5465 N   0  0  0  0  0  0  0  0  0  0  0  0
    0.7181   -1.3295    1.6257 N   0  0  0  0  0  0  0  0  0  0  0  0
    5.1907   -0.4975    1.2181 O   0  0  0  0  0  0  0  0  0  0  0  0
    4.0412   -0.1978   -0.7316 O   0  0  0  0  0  0  0  0  0  0  0  0
   -6.9901   -2.9408    0.7971 H   0  0  0  0  0  0  0  0  0  0  0  0
    5.6119    1.9320   -0.1192 H   0  0  0  0  0  0  0  0  0  0  0  0
    4.6329    2.2605   -1.5432 H   0  0  0  0  0  0  0  0  0  0  0  0
    6.3871    2.0132   -1.7163 H   0  0  0  0  0  0  0  0  0  0  0  0
    5.1445   -0.0165   -2.4397 H   0  0  0  0  0  0  0  0  0  0  0  0
    6.1122   -0.3900   -1.0170 H   0  0  0  0  0  0  0  0  0  0  0  0
   -2.5249    3.6573   -3.0045 H   0  0  0  0  0  0  0  0  0  0  0  0
   -3.7774    4.6707   -1.1138 H   0  0  0  0  0  0  0  0  0  0  0  0
   -1.1868    1.6017   -2.6515 H   0  0  0  0  0  0  0  0  0  0  0  0
   -3.6699    3.6242    1.1453 H   0  0  0  0  0  0  0  0  0  0  0  0
   -3.1516   -3.4093    2.9300 H   0  0  0  0  0  0  0  0  0  0  0  0
   -0.7736   -2.9317    3.1846 H   0  0  0  0  0  0  0  0  0  0  0  0
   -3.3814   -0.7689   -0.4477 H   0  0  0  0  0  0  0  0  0  0  0  0
    0.6104   -1.9153   -1.0807 H   0  0  0  0  0  0  0  0  0  0  0  0
    1.9501   -0.9034   -1.5126 H   0  0  0  0  0  0  0  0  0  0  0  0
    1.0607   -1.7022    3.7286 H   0  0  0  0  0  0  0  0  0  0  0  0
  1  3  3  0
  2  4  1  0
  3 14  1  0
  4 28  1  0
  5  6  2  0
  5  7  1  0
  6  8  1  0
  7 15  2  0
  8 17  2  0
  9 10  2  0
  9 14  1  0
 10 18  1  0
 11 14  2  0
 11 16  1  0
 12 19  1  0
 12 24  1  0
 13 25  2  0
 13 26  1  0
 15 17  1  0
 15 20  1  0
 16 18  2  0
 16 20  1  0
 17 23  1  0
 18 26  1  0
 19 21  2  0
 19 26  1  0
 20 24  2  0
 21 22  1  0
 21 25  1  0
 22 27  2  0
 22 28  1  0
  1 29  1  0
  2 30  1  0
  2 31  1  0
  2 32  1  0
  4 33  1  0
  4 34  1  0
  5 35  1  0
  6 36  1  0
  7 37  1  0
  8 38  1  0
  9 39  1  0
 10 40  1  0
 11 41  1  0
 12 42  1  0
 12 43  1  0
 13 44  1  0
M  END
