
     RDKit          3D

 48 51  0  0  0  0  0  0  0  0999 V2000
    5.8870   -0.1325   -1.9444 C   0  0  0  0  0  0  0  0  0  0  0  0
    5.7261    1.0402    0.2484 C   0  0  0  0  0  0  0  0  0  0  0  0
    4.6477    2.0265   -1.8303 C   0  0  0  0  0  0  0  0  0  0  0  0
   -5.4740    1.8437   -2.1263 C   0  0  0  0  0  0  0  0  0  0  0  0
   -5.2017    0.4773   -2.0604 C   0  0  0  0  0  0  0  0  0  0  0  0
   -4.7348    2.7416   -1.3573 C   0  0  0  0  0  0  0  0  0  0  0  0
   -2.9867   -3.5527    1.9898 C   0  0  0  0  0  0  0  0  0  0  0  0
   -4.1934    0.0031   -1.2181 C   0  0  0  0  0  0  0  0  0  0  0  0
   -3.7262    2.2728   -0.5144 C   0  0  0  0  0  0  0  0  0  0  0  0
   -3.9168   -2.5524    2.2583 C   0  0  0  0  0  0  0  0  0  0  0  0
   -1.7883   -3.2360    1.3525 C   0  0  0  0  0  0  0  0  0  0  0  0
   -0.1741    0.7438    1.3373 C   0  0  0  0  0  0  0  0  0  0  0  0
    0.6445   -2.4473   -0.1686 C   0  0  0  0  0  0  0  0  0  0  0  0
   -3.4615    0.9003   -0.4289 C   0  0  0  0  0  0  0  0  0  0  0  0
   -3.6806   -1.2376    1.8428 C   0  0  0  0  0  0  0  0  0  0  0  0
   -1.5229   -1.9117    0.9609 C   0  0  0  0  0  0  0  0  0  0  0  0
    0.4365   -0.3982    0.6178 C   0  0  0  0  0  0  0  0  0  0  0  0
   -2.5042   -0.9130    1.1409 C   0  0  0  0  0  0  0  0  0  0  0  0
   -2.3637    0.4263    0.4780 C   0  0  0  0  0  0  0  0  0  0  0  0
    1.6807   -0.5716    0.0248 C   0  0  0  0  0  0  0  0  0  0  0  0
    2.7686    0.4090   -0.0759 C   0  0  0  0  0  0  0  0  0  0  0  0
    4.9865    0.7449   -1.0610 C   0  0  0  0  0  0  0  0  0  0  0  0
   -4.8675   -0.0614    2.2934 Cl  0  0  0  0  0  0  0  0  0  0  0  0
   -1.3281    1.1905    0.5792 N   0  0  0  0  0  0  0  0  0  0  0  0
    1.7849   -1.8676   -0.4579 N   0  0  0  0  0  0  0  0  0  0  0  0
   -0.2304   -1.5977    0.4637 N   0  0  0  0  0  0  0  0  0  0  0  0
    2.7444    1.5070    0.4666 O   0  0  0  0  0  0  0  0  0  0  0  0
    3.8045   -0.0591   -0.8292 O   0  0  0  0  0  0  0  0  0  0  0  0
    6.1226   -1.0783   -1.4427 H   0  0  0  0  0  0  0  0  0  0  0  0
    6.8273    0.3703   -2.1937 H   0  0  0  0  0  0  0  0  0  0  0  0
    5.3777   -0.3971   -2.8786 H   0  0  0  0  0  0  0  0  0  0  0  0
    5.8804    0.1203    0.8236 H   0  0  0  0  0  0  0  0  0  0  0  0
    5.1625    1.7218    0.8925 H   0  0  0  0  0  0  0  0  0  0  0  0
    6.7017    1.5009    0.0597 H   0  0  0  0  0  0  0  0  0  0  0  0
    4.0445    1.7999   -2.7166 H   0  0  0  0  0  0  0  0  0  0  0  0
    5.5548    2.5503   -2.1508 H   0  0  0  0  0  0  0  0  0  0  0  0
    4.0640    2.7258   -1.2242 H   0  0  0  0  0  0  0  0  0  0  0  0
   -6.2576    2.2111   -2.7844 H   0  0  0  0  0  0  0  0  0  0  0  0
   -5.7713   -0.2179   -2.6720 H   0  0  0  0  0  0  0  0  0  0  0  0
   -4.9391    3.8076   -1.4158 H   0  0  0  0  0  0  0  0  0  0  0  0
   -3.1783   -4.5734    2.3154 H   0  0  0  0  0  0  0  0  0  0  0  0
   -3.9846   -1.0621   -1.2031 H   0  0  0  0  0  0  0  0  0  0  0  0
   -3.1488    2.9793    0.0778 H   0  0  0  0  0  0  0  0  0  0  0  0
   -4.8289   -2.8030    2.7965 H   0  0  0  0  0  0  0  0  0  0  0  0
   -1.0556   -4.0313    1.2315 H   0  0  0  0  0  0  0  0  0  0  0  0
   -0.4437    0.4735    2.3659 H   0  0  0  0  0  0  0  0  0  0  0  0
    0.5200    1.5828    1.4259 H   0  0  0  0  0  0  0  0  0  0  0  0
    0.3961   -3.4685   -0.4238 H   0  0  0  0  0  0  0  0  0  0  0  0
  1 22  1  0
  2 22  1  0
  3 22  1  0
  4  5  2  0
  4  6  1  0
  5  8  1  0
  6  9  2  0
  7 10  2  0
  7 11  1  0
  8 14  2  0
  9 14  1  0
 10 15  1  0
 11 16  2  0
 12 17  1  0
 12 24  1  0
 13 25  2  0
 13 26  1  0
 14 19  1  0
 15 18  2  0
 15 23  1  0
 16 18  1  0
 16 26  1  0
 17 20  2  0
 17 26  1  0
 18 19  1  0
 19 24  2  0
 20 21  1  0
 20 25  1  0
 21 27  2  0
 21 28  1  0
 22 28  1  0
  1 29  1  0
  1 30  1  0
  1 31  1  0
  2 32  1  0
  2 33  1  0
  2 34  1  0
  3 35  1  0
  3 36  1  0
  3 37  1  0
  4 38  1  0
  5 39  1  0
  6 40  1  0
  7 41  1  0
  8 42  1  0
  9 43  1  0
 10 44  1  0
 11 45  1  0
 12 46  1  0
 12 47  1  0
 13 48  1  0
M  END
