
     RDKit          3D

 51 54  0  0  0  0  0  0  0  0999 V2000
   -3.8614   -1.2480   -1.4940 C   0  0  0  0  0  0  0  0  0  0  0  0
   -2.9437    0.7927   -2.4933 C   0  0  0  0  0  0  0  0  0  0  0  0
   -4.3095    2.4041    2.1798 C   0  0  0  0  0  0  0  0  0  0  0  0
   -3.4854    2.9511    1.2048 C   0  0  0  0  0  0  0  0  0  0  0  0
   -4.6881    1.0693    2.0878 C   0  0  0  0  0  0  0  0  0  0  0  0
    1.9198   -4.1847    2.1977 C   0  0  0  0  0  0  0  0  0  0  0  0
    3.1630   -3.5677    2.3132 C   0  0  0  0  0  0  0  0  0  0  0  0
    3.7984    2.6872   -1.7344 C   0  0  0  0  0  0  0  0  0  0  0  0
    3.0428    1.3928   -2.1005 C   0  0  0  0  0  0  0  0  0  0  0  0
    4.9087    1.7904   -1.1469 C   0  0  0  0  0  0  0  0  0  0  0  0
   -3.0555    2.1667    0.1315 C   0  0  0  0  0  0  0  0  0  0  0  0
   -4.2531    0.2834    1.0191 C   0  0  0  0  0  0  0  0  0  0  0  0
    0.8621   -3.5448    1.5477 C   0  0  0  0  0  0  0  0  0  0  0  0
    3.3881   -2.2949    1.7778 C   0  0  0  0  0  0  0  0  0  0  0  0
    3.2155    0.5976    0.4065 C   0  0  0  0  0  0  0  0  0  0  0  0
    3.8452    0.6723   -0.9798 C   0  0  0  0  0  0  0  0  0  0  0  0
   -3.4492    0.8197   -0.0022 C   0  0  0  0  0  0  0  0  0  0  0  0
    1.0646   -2.2607    1.0038 C   0  0  0  0  0  0  0  0  0  0  0  0
    2.3173   -1.6634    1.1293 C   0  0  0  0  0  0  0  0  0  0  0  0
    0.2695   -1.3188    0.2903 C   0  0  0  0  0  0  0  0  0  0  0  0
   -1.1415   -1.4560   -0.1140 C   0  0  0  0  0  0  0  0  0  0  0  0
   -2.9515   -0.0334   -1.1809 C   0  0  0  0  0  0  0  0  0  0  0  0
   -1.5620   -0.4148   -0.9137 N   0  0  0  0  0  0  0  0  0  0  0  0
    0.9718   -0.2006   -0.0011 N   0  0  0  0  0  0  0  0  0  0  0  0
    2.1952   -0.4409    0.5096 N   0  0  0  0  0  0  0  0  0  0  0  0
   -1.8346   -2.4107    0.2173 O   0  0  0  0  0  0  0  0  0  0  0  0
   -3.4588   -1.8380   -2.3284 H   0  0  0  0  0  0  0  0  0  0  0  0
   -4.8698   -0.9181   -1.7747 H   0  0  0  0  0  0  0  0  0  0  0  0
   -3.9795   -1.9366   -0.6554 H   0  0  0  0  0  0  0  0  0  0  0  0
   -2.6691    0.1662   -3.3494 H   0  0  0  0  0  0  0  0  0  0  0  0
   -3.9279    1.2267   -2.6963 H   0  0  0  0  0  0  0  0  0  0  0  0
   -2.2109    1.6066   -2.4760 H   0  0  0  0  0  0  0  0  0  0  0  0
   -4.6428    3.0119    3.0196 H   0  0  0  0  0  0  0  0  0  0  0  0
   -3.1684    3.9894    1.2797 H   0  0  0  0  0  0  0  0  0  0  0  0
   -5.3139    0.6283    2.8609 H   0  0  0  0  0  0  0  0  0  0  0  0
    1.7658   -5.1772    2.6188 H   0  0  0  0  0  0  0  0  0  0  0  0
    3.9721   -4.0850    2.8296 H   0  0  0  0  0  0  0  0  0  0  0  0
    4.0897    3.3233   -2.5776 H   0  0  0  0  0  0  0  0  0  0  0  0
    3.2860    3.3060   -0.9848 H   0  0  0  0  0  0  0  0  0  0  0  0
    1.9573    1.4400   -1.9885 H   0  0  0  0  0  0  0  0  0  0  0  0
    3.2750    1.0185   -3.1081 H   0  0  0  0  0  0  0  0  0  0  0  0
    5.3804    2.1628   -0.2297 H   0  0  0  0  0  0  0  0  0  0  0  0
    5.6946    1.5390   -1.8717 H   0  0  0  0  0  0  0  0  0  0  0  0
   -2.3964    2.6328   -0.5950 H   0  0  0  0  0  0  0  0  0  0  0  0
   -4.5511   -0.7626    1.0134 H   0  0  0  0  0  0  0  0  0  0  0  0
   -0.1060   -4.0342    1.4621 H   0  0  0  0  0  0  0  0  0  0  0  0
    4.3623   -1.8262    1.8713 H   0  0  0  0  0  0  0  0  0  0  0  0
    3.9850    0.3780    1.1516 H   0  0  0  0  0  0  0  0  0  0  0  0
    2.7451    1.5372    0.7039 H   0  0  0  0  0  0  0  0  0  0  0  0
    4.2279   -0.3107   -1.2843 H   0  0  0  0  0  0  0  0  0  0  0  0
   -0.8732    0.3339   -0.9319 H   0  0  0  0  0  0  0  0  0  0  0  0
  1 22  1  0
  2 22  1  0
  3  4  2  0
  3  5  1  0
  4 11  1  0
  5 12  2  0
  6  7  2  0
  6 13  1  0
  7 14  1  0
  8  9  1  0
  8 10  1  0
  9 16  1  0
 10 16  1  0
 11 17  2  0
 12 17  1  0
 13 18  2  0
 14 19  2  0
 15 16  1  0
 15 25  1  0
 17 22  1  0
 18 19  1  0
 18 20  1  0
 19 25  1  0
 20 21  1  0
 20 24  2  0
 21 23  1  0
 21 26  2  0
 22 23  1  0
 24 25  1  0
  1 27  1  0
  1 28  1  0
  1 29  1  0
  2 30  1  0
  2 31  1  0
  2 32  1  0
  3 33  1  0
  4 34  1  0
  5 35  1  0
  6 36  1  0
  7 37  1  0
  8 38  1  0
  8 39  1  0
  9 40  1  0
  9 41  1  0
 10 42  1  0
 10 43  1  0
 11 44  1  0
 12 45  1  0
 13 46  1  0
 14 47  1  0
 15 48  1  0
 15 49  1  0
 16 50  1  0
 23 51  1  0
M  END
