
     RDKit          3D

 56 59  0  0  0  0  0  0  0  0999 V2000
   -3.8153    0.3100   -4.2649 C   0  0  0  0  0  0  0  0  0  0  0  0
   -5.1753    0.5536   -4.1861 C   0  0  0  0  0  0  0  0  0  0  0  0
   -0.4748    0.1615   -0.8963 C   0  0  0  0  0  0  0  0  0  0  0  0
   -3.0843    0.0365   -3.1019 C   0  0  0  0  0  0  0  0  0  0  0  0
   -5.7955    0.5253   -2.9428 C   0  0  0  0  0  0  0  0  0  0  0  0
   -4.3115    0.2724    3.3723 C   0  0  0  0  0  0  0  0  0  0  0  0
   -5.1956    0.3282    2.3000 C   0  0  0  0  0  0  0  0  0  0  0  0
    0.8959   -0.5187   -1.0136 C   0  0  0  0  0  0  0  0  0  0  0  0
   -1.5885   -0.8928   -0.8193 C   0  0  0  0  0  0  0  0  0  0  0  0
    2.1918    1.2114    0.1321 C   0  0  0  0  0  0  0  0  0  0  0  0
    3.2401   -0.1832   -1.5731 C   0  0  0  0  0  0  0  0  0  0  0  0
    3.6468    1.2536    0.6570 C   0  0  0  0  0  0  0  0  0  0  0  0
    4.0754   -0.8701   -0.4646 C   0  0  0  0  0  0  0  0  0  0  0  0
    5.4960   -0.1824    1.4263 C   0  0  0  0  0  0  0  0  0  0  0  0
    6.6415    0.5969    0.7601 C   0  0  0  0  0  0  0  0  0  0  0  0
   -2.5228   -0.1509    1.8101 C   0  0  0  0  0  0  0  0  0  0  0  0
   -2.9588    0.0416    3.1368 C   0  0  0  0  0  0  0  0  0  0  0  0
   -3.6787   -0.0088   -1.8198 C   0  0  0  0  0  0  0  0  0  0  0  0
   -3.3922   -0.1045    0.6949 C   0  0  0  0  0  0  0  0  0  0  0  0
   -5.0632    0.2528   -1.7697 C   0  0  0  0  0  0  0  0  0  0  0  0
   -4.7491    0.1497    0.9762 C   0  0  0  0  0  0  0  0  0  0  0  0
   -1.9763   -0.0353    4.2790 C   0  0  0  0  0  0  0  0  0  0  0  0
   -2.3745    0.6610    5.3801 F   0  0  0  0  0  0  0  0  0  0  0  0
   -0.7465    0.4543    3.9550 F   0  0  0  0  0  0  0  0  0  0  0  0
   -1.7707   -1.3142    4.6975 F   0  0  0  0  0  0  0  0  0  0  0  0
    1.9879    0.4590   -1.1310 N   0  0  0  0  0  0  0  0  0  0  0  0
    4.1801   -0.1050    0.7865 N   0  0  0  0  0  0  0  0  0  0  0  0
   -2.9233   -0.2754   -0.6400 N   0  0  0  0  0  0  0  0  0  0  0  0
    7.8586    0.3434    1.4566 O   0  0  0  0  0  0  0  0  0  0  0  0
   -6.0134    0.2254   -0.2689 S   0  0  0  0  0  0  0  0  0  0  0  0
   -3.3112    0.3365   -5.2278 H   0  0  0  0  0  0  0  0  0  0  0  0
   -5.7512    0.7673   -5.0820 H   0  0  0  0  0  0  0  0  0  0  0  0
   -0.5101    0.8118   -0.0166 H   0  0  0  0  0  0  0  0  0  0  0  0
   -0.6292    0.8209   -1.7578 H   0  0  0  0  0  0  0  0  0  0  0  0
   -2.0203   -0.1218   -3.2421 H   0  0  0  0  0  0  0  0  0  0  0  0
   -6.8654    0.7179   -2.8888 H   0  0  0  0  0  0  0  0  0  0  0  0
   -4.6850    0.4139    4.3850 H   0  0  0  0  0  0  0  0  0  0  0  0
   -6.2498    0.5122    2.5017 H   0  0  0  0  0  0  0  0  0  0  0  0
    1.0631   -1.1951   -0.1656 H   0  0  0  0  0  0  0  0  0  0  0  0
    0.8717   -1.1424   -1.9165 H   0  0  0  0  0  0  0  0  0  0  0  0
   -1.5667   -1.5350   -1.7094 H   0  0  0  0  0  0  0  0  0  0  0  0
   -1.3801   -1.6084   -0.0130 H   0  0  0  0  0  0  0  0  0  0  0  0
    1.8459    2.2391   -0.0282 H   0  0  0  0  0  0  0  0  0  0  0  0
    1.5732    0.7991    0.9405 H   0  0  0  0  0  0  0  0  0  0  0  0
    3.8604    0.6013   -2.0282 H   0  0  0  0  0  0  0  0  0  0  0  0
    3.0511   -0.8949   -2.3867 H   0  0  0  0  0  0  0  0  0  0  0  0
    4.2607    1.8648   -0.0162 H   0  0  0  0  0  0  0  0  0  0  0  0
    3.6442    1.7491    1.6354 H   0  0  0  0  0  0  0  0  0  0  0  0
    3.6144   -1.8351   -0.2214 H   0  0  0  0  0  0  0  0  0  0  0  0
    5.0611   -1.0962   -0.8875 H   0  0  0  0  0  0  0  0  0  0  0  0
    5.4029    0.1658    2.4637 H   0  0  0  0  0  0  0  0  0  0  0  0
    5.7894   -1.2360    1.5266 H   0  0  0  0  0  0  0  0  0  0  0  0
    6.7794    0.2922   -0.2813 H   0  0  0  0  0  0  0  0  0  0  0  0
    6.4539    1.6744    0.7922 H   0  0  0  0  0  0  0  0  0  0  0  0
   -1.4573   -0.3198    1.6783 H   0  0  0  0  0  0  0  0  0  0  0  0
    8.5514    0.8661    1.0176 H   0  0  0  0  0  0  0  0  0  0  0  0
  1  2  2  0
  1  4  1  0
  2  5  1  0
  3  8  1  0
  3  9  1  0
  4 18  2  0
  5 20  2  0
  6  7  1  0
  6 17  2  0
  7 21  2  0
  8 26  1  0
  9 28  1  0
 10 12  1  0
 10 26  1  0
 11 13  1  0
 11 26  1  0
 12 27  1  0
 13 27  1  0
 14 15  1  0
 14 27  1  0
 15 29  1  0
 16 17  1  0
 16 19  2  0
 17 22  1  0
 18 20  1  0
 18 28  1  0
 19 21  1  0
 19 28  1  0
 20 30  1  0
 21 30  1  0
 22 23  1  0
 22 24  1  0
 22 25  1  0
  1 31  1  0
  2 32  1  0
  3 33  1  0
  3 34  1  0
  4 35  1  0
  5 36  1  0
  6 37  1  0
  7 38  1  0
  8 39  1  0
  8 40  1  0
  9 41  1  0
  9 42  1  0
 10 43  1  0
 10 44  1  0
 11 45  1  0
 11 46  1  0
 12 47  1  0
 12 48  1  0
 13 49  1  0
 13 50  1  0
 14 51  1  0
 14 52  1  0
 15 53  1  0
 15 54  1  0
 16 55  1  0
 29 56  1  0
M  END
