
     RDKit          3D

 56 59  0  0  0  0  0  0  0  0999 V2000
    6.5064    0.7510   -1.7615 C   0  0  0  0  0  0  0  0  0  0  0  0
    5.2563   -1.6783    2.5204 C   0  0  0  0  0  0  0  0  0  0  0  0
   -3.5881   -0.3827   -2.9848 C   0  0  0  0  0  0  0  0  0  0  0  0
    5.1246    1.3890   -1.7877 C   0  0  0  0  0  0  0  0  0  0  0  0
    3.8834   -1.0224    2.4777 C   0  0  0  0  0  0  0  0  0  0  0  0
   -6.8521    0.3953    2.7281 C   0  0  0  0  0  0  0  0  0  0  0  0
   -5.4932    0.1038    2.6033 C   0  0  0  0  0  0  0  0  0  0  0  0
    4.4442    1.4132   -0.4111 C   0  0  0  0  0  0  0  0  0  0  0  0
    3.8518    0.2579    1.6301 C   0  0  0  0  0  0  0  0  0  0  0  0
   -7.0855    0.3407    0.3271 C   0  0  0  0  0  0  0  0  0  0  0  0
    1.3224    0.2072   -1.7284 C   0  0  0  0  0  0  0  0  0  0  0  0
    3.4329   -0.8418   -0.5409 C   0  0  0  0  0  0  0  0  0  0  0  0
   -3.1114    0.8570   -0.9038 C   0  0  0  0  0  0  0  0  0  0  0  0
   -2.7341   -0.9165    2.2176 C   0  0  0  0  0  0  0  0  0  0  0  0
   -7.6338    0.5162    1.5900 C   0  0  0  0  0  0  0  0  0  0  0  0
    2.0176   -0.4337   -0.7322 C   0  0  0  0  0  0  0  0  0  0  0  0
   -5.7163    0.0535    0.1746 C   0  0  0  0  0  0  0  0  0  0  0  0
   -4.9099   -0.0540    1.3291 C   0  0  0  0  0  0  0  0  0  0  0  0
   -2.6564    0.0650    0.2484 C   0  0  0  0  0  0  0  0  0  0  0  0
   -1.4129   -0.4026    0.6256 C   0  0  0  0  0  0  0  0  0  0  0  0
   -0.0807   -0.2683   -0.1987 C   0  0  0  0  0  0  0  0  0  0  0  0
   -5.2965   -0.2796   -1.2230 C   0  0  0  0  0  0  0  0  0  0  0  0
   -8.9378    0.7927    1.7129 F   0  0  0  0  0  0  0  0  0  0  0  0
   -0.0008    0.3149   -1.3849 N   0  0  0  0  0  0  0  0  0  0  0  0
   -1.4731   -0.9993    1.8608 N   0  0  0  0  0  0  0  0  0  0  0  0
   -4.0183    0.0254   -1.6573 N   0  0  0  0  0  0  0  0  0  0  0  0
    4.2748    0.0968    0.2263 N   0  0  0  0  0  0  0  0  0  0  0  0
   -3.5154   -0.3093    1.2595 N   0  0  0  0  0  0  0  0  0  0  0  0
   -6.1254   -0.8290   -1.9476 O   0  0  0  0  0  0  0  0  0  0  0  0
    1.1240   -0.7532    0.2513 O   0  0  0  0  0  0  0  0  0  0  0  0
    6.4544   -0.3090   -1.4948 H   0  0  0  0  0  0  0  0  0  0  0  0
    6.9729    0.8244   -2.7490 H   0  0  0  0  0  0  0  0  0  0  0  0
    7.1578    1.2565   -1.0414 H   0  0  0  0  0  0  0  0  0  0  0  0
    5.5639   -2.0312    1.5314 H   0  0  0  0  0  0  0  0  0  0  0  0
    6.0136   -0.9786    2.8880 H   0  0  0  0  0  0  0  0  0  0  0  0
    5.2393   -2.5420    3.1927 H   0  0  0  0  0  0  0  0  0  0  0  0
   -4.2896   -1.0841   -3.4436 H   0  0  0  0  0  0  0  0  0  0  0  0
   -2.6091   -0.8652   -2.9087 H   0  0  0  0  0  0  0  0  0  0  0  0
   -3.5110    0.5071   -3.6166 H   0  0  0  0  0  0  0  0  0  0  0  0
    4.4974    0.8793   -2.5266 H   0  0  0  0  0  0  0  0  0  0  0  0
    5.2269    2.4237   -2.1375 H   0  0  0  0  0  0  0  0  0  0  0  0
    3.1399   -1.7453    2.1256 H   0  0  0  0  0  0  0  0  0  0  0  0
    3.5917   -0.7618    3.5026 H   0  0  0  0  0  0  0  0  0  0  0  0
   -7.3048    0.5327    3.7059 H   0  0  0  0  0  0  0  0  0  0  0  0
   -4.9065    0.0459    3.5178 H   0  0  0  0  0  0  0  0  0  0  0  0
    5.0724    2.0408    0.2353 H   0  0  0  0  0  0  0  0  0  0  0  0
    3.4828    1.9349   -0.4949 H   0  0  0  0  0  0  0  0  0  0  0  0
    4.5285    0.9708    2.1206 H   0  0  0  0  0  0  0  0  0  0  0  0
    2.8518    0.7048    1.6898 H   0  0  0  0  0  0  0  0  0  0  0  0
   -7.7413    0.4042   -0.5389 H   0  0  0  0  0  0  0  0  0  0  0  0
    1.7024    0.5940   -2.6636 H   0  0  0  0  0  0  0  0  0  0  0  0
    3.8859   -1.0176   -1.5238 H   0  0  0  0  0  0  0  0  0  0  0  0
    3.4585   -1.8319   -0.0709 H   0  0  0  0  0  0  0  0  0  0  0  0
   -2.2958    1.1966   -1.5460 H   0  0  0  0  0  0  0  0  0  0  0  0
   -3.6434    1.7568   -0.5717 H   0  0  0  0  0  0  0  0  0  0  0  0
   -3.1352   -1.3148    3.1401 H   0  0  0  0  0  0  0  0  0  0  0  0
  1  4  1  0
  2  5  1  0
  3 26  1  0
  4  8  1  0
  5  9  1  0
  6  7  2  0
  6 15  1  0
  7 18  1  0
  8 27  1  0
  9 27  1  0
 10 15  2  0
 10 17  1  0
 11 16  2  0
 11 24  1  0
 12 16  1  0
 12 27  1  0
 13 19  1  0
 13 26  1  0
 14 25  2  0
 14 28  1  0
 15 23  1  0
 16 30  1  0
 17 18  2  0
 17 22  1  0
 18 28  1  0
 19 20  2  0
 19 28  1  0
 20 21  1  0
 20 25  1  0
 21 24  2  0
 21 30  1  0
 22 26  1  0
 22 29  2  0
  1 31  1  0
  1 32  1  0
  1 33  1  0
  2 34  1  0
  2 35  1  0
  2 36  1  0
  3 37  1  0
  3 38  1  0
  3 39  1  0
  4 40  1  0
  4 41  1  0
  5 42  1  0
  5 43  1  0
  6 44  1  0
  7 45  1  0
  8 46  1  0
  8 47  1  0
  9 48  1  0
  9 49  1  0
 10 50  1  0
 11 51  1  0
 12 52  1  0
 12 53  1  0
 13 54  1  0
 13 55  1  0
 14 56  1  0
M  END
