
     RDKit          3D

 52 54  0  0  0  0  0  0  0  0999 V2000
   -4.6166    1.7394    2.9871 C   0  0  0  0  0  0  0  0  0  0  0  0
   -2.8234    0.4675   -3.3057 C   0  0  0  0  0  0  0  0  0  0  0  0
   -2.9012   -1.7851   -2.2504 C   0  0  0  0  0  0  0  0  0  0  0  0
    4.7297    0.5325    0.1618 C   0  0  0  0  0  0  0  0  0  0  0  0
    5.5265    1.7572    0.3012 C   0  0  0  0  0  0  0  0  0  0  0  0
    4.0633   -0.4598    0.0372 C   0  0  0  0  0  0  0  0  0  0  0  0
    6.9560    1.4990    0.7868 C   0  0  0  0  0  0  0  0  0  0  0  0
    3.2513   -1.6735   -0.1357 C   0  0  0  0  0  0  0  0  0  0  0  0
   -4.9224    1.0993    0.5992 C   0  0  0  0  0  0  0  0  0  0  0  0
   -4.4650    0.5360   -0.7140 C   0  0  0  0  0  0  0  0  0  0  0  0
    7.8644    0.8753   -0.2641 C   0  0  0  0  0  0  0  0  0  0  0  0
   -2.7680    0.5065    1.7243 C   0  0  0  0  0  0  0  0  0  0  0  0
    1.1551   -1.5321    1.2736 C   0  0  0  0  0  0  0  0  0  0  0  0
    1.0104   -0.9597   -1.0548 C   0  0  0  0  0  0  0  0  0  0  0  0
   -4.1530    1.1194    1.7006 C   0  0  0  0  0  0  0  0  0  0  0  0
    1.7788   -1.3913    0.0305 C   0  0  0  0  0  0  0  0  0  0  0  0
   -2.4412   -0.3772    0.4921 C   0  0  0  0  0  0  0  0  0  0  0  0
   -2.9385    0.3545   -0.7750 C   0  0  0  0  0  0  0  0  0  0  0  0
   -0.2042   -1.2322    1.4196 C   0  0  0  0  0  0  0  0  0  0  0  0
   -0.3508   -0.6714   -0.9022 C   0  0  0  0  0  0  0  0  0  0  0  0
   -0.9756   -0.7508    0.3504 C   0  0  0  0  0  0  0  0  0  0  0  0
   -2.4222   -0.3360   -2.0551 C   0  0  0  0  0  0  0  0  0  0  0  0
    7.8061   -1.0699   -0.2128 Br  0  0  0  0  0  0  0  0  0  0  0  0
   -0.7920   -1.4419    2.6363 O   0  0  0  0  0  0  0  0  0  0  0  0
   -0.9813   -0.3162   -2.0642 O   0  0  0  0  0  0  0  0  0  0  0  0
   -4.6520    0.9862    3.7816 H   0  0  0  0  0  0  0  0  0  0  0  0
   -3.9296    2.5360    3.2919 H   0  0  0  0  0  0  0  0  0  0  0  0
   -5.6164    2.1771    2.8968 H   0  0  0  0  0  0  0  0  0  0  0  0
   -2.3302    0.0673   -4.2002 H   0  0  0  0  0  0  0  0  0  0  0  0
   -3.9040    0.4534   -3.4819 H   0  0  0  0  0  0  0  0  0  0  0  0
   -2.4972    1.5108   -3.2193 H   0  0  0  0  0  0  0  0  0  0  0  0
   -2.6003   -2.4368   -1.4245 H   0  0  0  0  0  0  0  0  0  0  0  0
   -2.4500   -2.2189   -3.1512 H   0  0  0  0  0  0  0  0  0  0  0  0
   -3.9884   -1.8470   -2.3559 H   0  0  0  0  0  0  0  0  0  0  0  0
    5.0293    2.4155    1.0242 H   0  0  0  0  0  0  0  0  0  0  0  0
    5.5461    2.3011   -0.6505 H   0  0  0  0  0  0  0  0  0  0  0  0
    6.9499    0.9113    1.7135 H   0  0  0  0  0  0  0  0  0  0  0  0
    7.3823    2.4791    1.0423 H   0  0  0  0  0  0  0  0  0  0  0  0
    3.4299   -2.1081   -1.1278 H   0  0  0  0  0  0  0  0  0  0  0  0
    3.5635   -2.4398    0.5855 H   0  0  0  0  0  0  0  0  0  0  0  0
   -5.9241    1.5219    0.6240 H   0  0  0  0  0  0  0  0  0  0  0  0
   -4.7841    1.2256   -1.5034 H   0  0  0  0  0  0  0  0  0  0  0  0
   -4.9869   -0.4122   -0.8792 H   0  0  0  0  0  0  0  0  0  0  0  0
    7.6158    1.1840   -1.2833 H   0  0  0  0  0  0  0  0  0  0  0  0
    8.9104    1.1276   -0.0626 H   0  0  0  0  0  0  0  0  0  0  0  0
   -2.0309    1.3153    1.8143 H   0  0  0  0  0  0  0  0  0  0  0  0
   -2.6984   -0.0961    2.6356 H   0  0  0  0  0  0  0  0  0  0  0  0
    1.7392   -1.8725    2.1250 H   0  0  0  0  0  0  0  0  0  0  0  0
    1.4652   -0.8516   -2.0378 H   0  0  0  0  0  0  0  0  0  0  0  0
   -2.9979   -1.3199    0.5963 H   0  0  0  0  0  0  0  0  0  0  0  0
   -2.4858    1.3608   -0.7595 H   0  0  0  0  0  0  0  0  0  0  0  0
   -0.1416   -1.8371    3.2392 H   0  0  0  0  0  0  0  0  0  0  0  0
  1 15  1  0
  2 22  1  0
  3 22  1  0
  4  5  1  0
  4  6  3  0
  5  7  1  0
  6  8  1  0
  7 11  1  0
  8 16  1  0
  9 10  1  0
  9 15  2  0
 10 18  1  0
 11 23  1  0
 12 15  1  0
 12 17  1  0
 13 16  2  0
 13 19  1  0
 14 16  1  0
 14 20  2  0
 17 18  1  0
 17 21  1  0
 18 22  1  0
 19 21  2  0
 19 24  1  0
 20 21  1  0
 20 25  1  0
 22 25  1  0
  1 26  1  0
  1 27  1  0
  1 28  1  0
  2 29  1  0
  2 30  1  0
  2 31  1  0
  3 32  1  0
  3 33  1  0
  3 34  1  0
  5 35  1  0
  5 36  1  0
  7 37  1  0
  7 38  1  0
  8 39  1  0
  8 40  1  0
  9 41  1  0
 10 42  1  0
 10 43  1  0
 11 44  1  0
 11 45  1  0
 12 46  1  0
 12 47  1  0
 13 48  1  0
 14 49  1  0
 17 50  1  0
 18 51  1  0
 24 52  1  0
M  END
