
     RDKit          3D

 53 55  0  0  0  0  0  0  0  0999 V2000
   -4.2645   -3.4713   -2.3306 C   0  0  0  0  0  0  0  0  0  0  0  0
   -3.2358   -2.4580   -1.8493 C   0  0  0  0  0  0  0  0  0  0  0  0
    7.5228    0.3443    1.2532 C   0  0  0  0  0  0  0  0  0  0  0  0
   -4.7178    3.1654    1.2344 C   0  0  0  0  0  0  0  0  0  0  0  0
    6.7312   -0.4036    2.1227 C   0  0  0  0  0  0  0  0  0  0  0  0
    6.9247    1.1475    0.2841 C   0  0  0  0  0  0  0  0  0  0  0  0
   -3.5374    2.6314    1.7382 C   0  0  0  0  0  0  0  0  0  0  0  0
   -5.3310    2.5602    0.1443 C   0  0  0  0  0  0  0  0  0  0  0  0
    5.3401   -0.3477    2.0251 C   0  0  0  0  0  0  0  0  0  0  0  0
    5.5337    1.2049    0.1845 C   0  0  0  0  0  0  0  0  0  0  0  0
   -2.9700    1.4938    1.1498 C   0  0  0  0  0  0  0  0  0  0  0  0
   -4.7610    1.4234   -0.4394 C   0  0  0  0  0  0  0  0  0  0  0  0
    3.2237    0.5073    0.9379 C   0  0  0  0  0  0  0  0  0  0  0  0
   -0.7029    0.7883   -0.9674 C   0  0  0  0  0  0  0  0  0  0  0  0
   -0.9677   -1.1942    0.6317 C   0  0  0  0  0  0  0  0  0  0  0  0
    2.6975   -0.5940   -0.0008 C   0  0  0  0  0  0  0  0  0  0  0  0
    0.7845    0.4452   -1.1294 C   0  0  0  0  0  0  0  0  0  0  0  0
    0.4503   -0.7409    0.9887 C   0  0  0  0  0  0  0  0  0  0  0  0
    4.7287    0.4613    1.0578 C   0  0  0  0  0  0  0  0  0  0  0  0
   -3.5686    0.8639    0.0494 C   0  0  0  0  0  0  0  0  0  0  0  0
   -1.5134   -0.4699   -0.6139 C   0  0  0  0  0  0  0  0  0  0  0  0
   -3.8636   -1.3140   -1.0571 C   0  0  0  0  0  0  0  0  0  0  0  0
    1.2446   -0.6171   -0.2281 N   0  0  0  0  0  0  0  0  0  0  0  0
   -2.9926   -0.2996   -0.5908 N   0  0  0  0  0  0  0  0  0  0  0  0
   -5.0802   -1.3248   -0.8516 O   0  0  0  0  0  0  0  0  0  0  0  0
   -5.0109   -2.9980   -2.9772 H   0  0  0  0  0  0  0  0  0  0  0  0
   -4.7912   -3.9288   -1.4866 H   0  0  0  0  0  0  0  0  0  0  0  0
   -3.7756   -4.2680   -2.8999 H   0  0  0  0  0  0  0  0  0  0  0  0
   -2.7298   -2.0424   -2.7271 H   0  0  0  0  0  0  0  0  0  0  0  0
   -2.5124   -2.9812   -1.2176 H   0  0  0  0  0  0  0  0  0  0  0  0
    8.6060    0.2999    1.3298 H   0  0  0  0  0  0  0  0  0  0  0  0
   -5.1615    4.0452    1.6921 H   0  0  0  0  0  0  0  0  0  0  0  0
    7.1977   -1.0320    2.8769 H   0  0  0  0  0  0  0  0  0  0  0  0
    7.5421    1.7289   -0.3956 H   0  0  0  0  0  0  0  0  0  0  0  0
   -3.0578    3.0927    2.5977 H   0  0  0  0  0  0  0  0  0  0  0  0
   -6.2554    2.9660   -0.2584 H   0  0  0  0  0  0  0  0  0  0  0  0
    4.7363   -0.9402    2.7088 H   0  0  0  0  0  0  0  0  0  0  0  0
    5.0824    1.8337   -0.5796 H   0  0  0  0  0  0  0  0  0  0  0  0
   -2.0672    1.1057    1.6052 H   0  0  0  0  0  0  0  0  0  0  0  0
   -5.2632    0.9954   -1.3039 H   0  0  0  0  0  0  0  0  0  0  0  0
    2.9260    1.5011    0.5837 H   0  0  0  0  0  0  0  0  0  0  0  0
    2.7880    0.4020    1.9392 H   0  0  0  0  0  0  0  0  0  0  0  0
   -1.0800    1.2360   -1.8949 H   0  0  0  0  0  0  0  0  0  0  0  0
   -0.7866    1.5575   -0.1951 H   0  0  0  0  0  0  0  0  0  0  0  0
   -1.6182   -1.0628    1.5029 H   0  0  0  0  0  0  0  0  0  0  0  0
   -0.9635   -2.2745    0.4357 H   0  0  0  0  0  0  0  0  0  0  0  0
    2.9903   -1.5732    0.4018 H   0  0  0  0  0  0  0  0  0  0  0  0
    3.2053   -0.5285   -0.9726 H   0  0  0  0  0  0  0  0  0  0  0  0
    1.3537    1.3728   -0.9991 H   0  0  0  0  0  0  0  0  0  0  0  0
    0.9623    0.1124   -2.1593 H   0  0  0  0  0  0  0  0  0  0  0  0
    0.8837   -1.4896    1.6631 H   0  0  0  0  0  0  0  0  0  0  0  0
    0.4181    0.2069    1.5405 H   0  0  0  0  0  0  0  0  0  0  0  0
   -1.2942   -1.1386   -1.4524 H   0  0  0  0  0  0  0  0  0  0  0  0
  1  2  1  0
  2 22  1  0
  3  5  2  0
  3  6  1  0
  4  7  2  0
  4  8  1  0
  5  9  1  0
  6 10  2  0
  7 11  1  0
  8 12  2  0
  9 19  2  0
 10 19  1  0
 11 20  2  0
 12 20  1  0
 13 16  1  0
 13 19  1  0
 14 17  1  0
 14 21  1  0
 15 18  1  0
 15 21  1  0
 16 23  1  0
 17 23  1  0
 18 23  1  0
 20 24  1  0
 21 24  1  0
 22 24  1  0
 22 25  2  0
  1 26  1  0
  1 27  1  0
  1 28  1  0
  2 29  1  0
  2 30  1  0
  3 31  1  0
  4 32  1  0
  5 33  1  0
  6 34  1  0
  7 35  1  0
  8 36  1  0
  9 37  1  0
 10 38  1  0
 11 39  1  0
 12 40  1  0
 13 41  1  0
 13 42  1  0
 14 43  1  0
 14 44  1  0
 15 45  1  0
 15 46  1  0
 16 47  1  0
 16 48  1  0
 17 49  1  0
 17 50  1  0
 18 51  1  0
 18 52  1  0
 21 53  1  0
M  END
