
     RDKit          3D

 59 60  0  0  0  0  0  0  0  0999 V2000
   -4.3049   -2.7924   -2.1174 C   0  0  0  0  0  0  0  0  0  0  0  0
   -3.3662    1.8449   -1.9120 C   0  0  0  0  0  0  0  0  0  0  0  0
   -3.3895    3.5094   -0.0618 C   0  0  0  0  0  0  0  0  0  0  0  0
   -5.4356    2.1689   -0.5512 C   0  0  0  0  0  0  0  0  0  0  0  0
   -4.6097   -2.2078   -0.7527 C   0  0  0  0  0  0  0  0  0  0  0  0
    5.5825   -2.2398    0.5223 C   0  0  0  0  0  0  0  0  0  0  0  0
    1.3752    2.8567    3.1691 C   0  0  0  0  0  0  0  0  0  0  0  0
    2.7352    2.5832    3.0878 C   0  0  0  0  0  0  0  0  0  0  0  0
    5.6722   -2.8988   -0.8559 C   0  0  0  0  0  0  0  0  0  0  0  0
    4.1880   -1.6988    0.8467 C   0  0  0  0  0  0  0  0  0  0  0  0
    0.4679    2.1967    2.3339 C   0  0  0  0  0  0  0  0  0  0  0  0
    3.2238    1.6468    2.1732 C   0  0  0  0  0  0  0  0  0  0  0  0
    7.0477   -3.5003   -1.0926 C   0  0  0  0  0  0  0  0  0  0  0  0
    3.7745   -0.5264   -0.0417 C   0  0  0  0  0  0  0  0  0  0  0  0
    1.2930   -0.3142   -0.1951 C   0  0  0  0  0  0  0  0  0  0  0  0
    0.9288    1.2430    1.3979 C   0  0  0  0  0  0  0  0  0  0  0  0
    0.2843    0.4105    0.4188 C   0  0  0  0  0  0  0  0  0  0  0  0
    2.3048    0.9895    1.3374 C   0  0  0  0  0  0  0  0  0  0  0  0
   -3.4442    1.0626    0.5714 C   0  0  0  0  0  0  0  0  0  0  0  0
   -1.1276    0.3102    0.0893 C   0  0  0  0  0  0  0  0  0  0  0  0
   -4.1276   -0.3086    0.5428 C   0  0  0  0  0  0  0  0  0  0  0  0
   -3.8940    2.1118   -0.4921 C   0  0  0  0  0  0  0  0  0  0  0  0
    7.9754   -2.5066   -1.0694 F   0  0  0  0  0  0  0  0  0  0  0  0
   -1.9879    0.9944    0.7317 N   0  0  0  0  0  0  0  0  0  0  0  0
    2.4928    0.0351    0.3620 N   0  0  0  0  0  0  0  0  0  0  0  0
   -1.3996   -0.5277   -0.9293 O   0  0  0  0  0  0  0  0  0  0  0  0
   -4.7481   -0.7890    1.4834 O   0  0  0  0  0  0  0  0  0  0  0  0
   -3.9634   -0.9289   -0.6606 O   0  0  0  0  0  0  0  0  0  0  0  0
   -4.6439   -2.1199   -2.9123 H   0  0  0  0  0  0  0  0  0  0  0  0
   -4.7906   -3.7642   -2.2433 H   0  0  0  0  0  0  0  0  0  0  0  0
   -3.2251   -2.9183   -2.2485 H   0  0  0  0  0  0  0  0  0  0  0  0
   -2.2729    1.8539   -1.9484 H   0  0  0  0  0  0  0  0  0  0  0  0
   -3.7111    2.6213   -2.6059 H   0  0  0  0  0  0  0  0  0  0  0  0
   -3.7178    0.8903   -2.3117 H   0  0  0  0  0  0  0  0  0  0  0  0
   -3.7546    3.7736    0.9366 H   0  0  0  0  0  0  0  0  0  0  0  0
   -3.7343    4.2865   -0.7540 H   0  0  0  0  0  0  0  0  0  0  0  0
   -2.2952    3.5523   -0.0415 H   0  0  0  0  0  0  0  0  0  0  0  0
   -5.7769    2.9716   -1.2149 H   0  0  0  0  0  0  0  0  0  0  0  0
   -5.8635    2.3564    0.4402 H   0  0  0  0  0  0  0  0  0  0  0  0
   -5.8597    1.2328   -0.9305 H   0  0  0  0  0  0  0  0  0  0  0  0
   -5.6907   -2.0814   -0.6339 H   0  0  0  0  0  0  0  0  0  0  0  0
   -4.2255   -2.8748    0.0270 H   0  0  0  0  0  0  0  0  0  0  0  0
    5.8499   -2.9775    1.2886 H   0  0  0  0  0  0  0  0  0  0  0  0
    6.3165   -1.4285    0.5964 H   0  0  0  0  0  0  0  0  0  0  0  0
    1.0094    3.5873    3.8862 H   0  0  0  0  0  0  0  0  0  0  0  0
    3.4286    3.1032    3.7447 H   0  0  0  0  0  0  0  0  0  0  0  0
    5.4807   -2.1528   -1.6343 H   0  0  0  0  0  0  0  0  0  0  0  0
    4.9118   -3.6827   -0.9467 H   0  0  0  0  0  0  0  0  0  0  0  0
    4.1812   -1.3811    1.8966 H   0  0  0  0  0  0  0  0  0  0  0  0
    3.4493   -2.5062    0.7676 H   0  0  0  0  0  0  0  0  0  0  0  0
   -0.5925    2.4210    2.4106 H   0  0  0  0  0  0  0  0  0  0  0  0
    4.2878    1.4400    2.1206 H   0  0  0  0  0  0  0  0  0  0  0  0
    7.0975   -3.9832   -2.0725 H   0  0  0  0  0  0  0  0  0  0  0  0
    7.3106   -4.2324   -0.3237 H   0  0  0  0  0  0  0  0  0  0  0  0
    3.6734   -0.8388   -1.0864 H   0  0  0  0  0  0  0  0  0  0  0  0
    4.5160    0.2790   -0.0131 H   0  0  0  0  0  0  0  0  0  0  0  0
    1.2372   -1.0515   -0.9854 H   0  0  0  0  0  0  0  0  0  0  0  0
   -3.7949    1.4669    1.5342 H   0  0  0  0  0  0  0  0  0  0  0  0
   -2.3489   -0.5673   -1.1123 H   0  0  0  0  0  0  0  0  0  0  0  0
  1  5  1  0
  2 22  1  0
  3 22  1  0
  4 22  1  0
  5 28  1  0
  6  9  1  0
  6 10  1  0
  7  8  2  0
  7 11  1  0
  8 12  1  0
  9 13  1  0
 10 14  1  0
 11 16  2  0
 12 18  2  0
 13 23  1  0
 14 25  1  0
 15 17  2  0
 15 25  1  0
 16 17  1  0
 16 18  1  0
 17 20  1  0
 18 25  1  0
 19 21  1  0
 19 22  1  0
 19 24  1  0
 20 24  2  3
 20 26  1  0
 21 27  2  0
 21 28  1  0
  1 29  1  0
  1 30  1  0
  1 31  1  0
  2 32  1  0
  2 33  1  0
  2 34  1  0
  3 35  1  0
  3 36  1  0
  3 37  1  0
  4 38  1  0
  4 39  1  0
  4 40  1  0
  5 41  1  0
  5 42  1  0
  6 43  1  0
  6 44  1  0
  7 45  1  0
  8 46  1  0
  9 47  1  0
  9 48  1  0
 10 49  1  0
 10 50  1  0
 11 51  1  0
 12 52  1  0
 13 53  1  0
 13 54  1  0
 14 55  1  0
 14 56  1  0
 15 57  1  0
 19 58  1  0
 26 59  1  0
M  END
