
     RDKit          3D

 48 51  0  0  0  0  0  0  0  0999 V2000
   -6.1391   -1.9554    1.4575 C   0  0  0  0  0  0  0  0  0  0  0  0
   -0.6152    2.6389    0.4411 C   0  0  0  0  0  0  0  0  0  0  0  0
    5.7672    2.5251    0.6296 C   0  0  0  0  0  0  0  0  0  0  0  0
    5.2414    0.1235    0.8654 C   0  0  0  0  0  0  0  0  0  0  0  0
   -4.9690   -1.6897    1.4119 C   0  0  0  0  0  0  0  0  0  0  0  0
   -2.4020   -0.4713   -4.7152 C   0  0  0  0  0  0  0  0  0  0  0  0
   -2.5337   -1.8591   -4.7867 C   0  0  0  0  0  0  0  0  0  0  0  0
   -1.9483    0.1301   -3.5387 C   0  0  0  0  0  0  0  0  0  0  0  0
   -2.2033   -2.6485   -3.6849 C   0  0  0  0  0  0  0  0  0  0  0  0
   -2.7500   -1.6584    2.4397 C   0  0  0  0  0  0  0  0  0  0  0  0
   -1.3928   -1.3292    2.3916 C   0  0  0  0  0  0  0  0  0  0  0  0
   -3.0370   -0.7833    0.2121 C   0  0  0  0  0  0  0  0  0  0  0  0
    1.5045   -0.8544    2.0598 C   0  0  0  0  0  0  0  0  0  0  0  0
    0.3446    1.6929   -0.2703 C   0  0  0  0  0  0  0  0  0  0  0  0
   -3.5756   -1.3725    1.3564 C   0  0  0  0  0  0  0  0  0  0  0  0
   -1.6358   -0.6582   -2.4237 C   0  0  0  0  0  0  0  0  0  0  0  0
   -1.6645   -0.4752    0.1364 C   0  0  0  0  0  0  0  0  0  0  0  0
   -1.7506   -2.0471   -2.5127 C   0  0  0  0  0  0  0  0  0  0  0  0
   -0.8459   -0.7103    1.2513 C   0  0  0  0  0  0  0  0  0  0  0  0
   -1.1447    0.0066   -1.1778 C   0  0  0  0  0  0  0  0  0  0  0  0
    2.4077    0.8159    1.0645 C   0  0  0  0  0  0  0  0  0  0  0  0
    1.0830    0.7739    0.6355 C   0  0  0  0  0  0  0  0  0  0  0  0
    3.4067    1.8491    0.7256 C   0  0  0  0  0  0  0  0  0  0  0  0
   -1.4133   -2.8363   -1.4820 F   0  0  0  0  0  0  0  0  0  0  0  0
    2.6461   -0.2199    1.9503 N   0  0  0  0  0  0  0  0  0  0  0  0
   -0.2976    0.9571   -1.3476 N   0  0  0  0  0  0  0  0  0  0  0  0
    4.7585    1.4852    0.7021 N   0  0  0  0  0  0  0  0  0  0  0  0
    0.5104   -0.3006    1.2860 N   0  0  0  0  0  0  0  0  0  0  0  0
    3.0495    3.0049    0.4916 O   0  0  0  0  0  0  0  0  0  0  0  0
   -7.1773   -2.1909    1.4985 H   0  0  0  0  0  0  0  0  0  0  0  0
   -1.1092    3.2983   -0.2810 H   0  0  0  0  0  0  0  0  0  0  0  0
   -0.0761    3.2676    1.1587 H   0  0  0  0  0  0  0  0  0  0  0  0
   -1.4012    2.1195    0.9961 H   0  0  0  0  0  0  0  0  0  0  0  0
    6.4016    2.3408   -0.2425 H   0  0  0  0  0  0  0  0  0  0  0  0
    6.3765    2.4853    1.5376 H   0  0  0  0  0  0  0  0  0  0  0  0
    5.3333    3.5242    0.5436 H   0  0  0  0  0  0  0  0  0  0  0  0
    4.5518   -0.5969    0.4193 H   0  0  0  0  0  0  0  0  0  0  0  0
    5.3682   -0.0808    1.9322 H   0  0  0  0  0  0  0  0  0  0  0  0
    6.2067    0.0154    0.3609 H   0  0  0  0  0  0  0  0  0  0  0  0
   -2.6448    0.1443   -5.5786 H   0  0  0  0  0  0  0  0  0  0  0  0
   -2.8821   -2.3254   -5.7054 H   0  0  0  0  0  0  0  0  0  0  0  0
   -1.8352    1.2113   -3.4928 H   0  0  0  0  0  0  0  0  0  0  0  0
   -2.2862   -3.7299   -3.7347 H   0  0  0  0  0  0  0  0  0  0  0  0
   -3.1595   -2.1190    3.3366 H   0  0  0  0  0  0  0  0  0  0  0  0
   -0.8004   -1.5201    3.2836 H   0  0  0  0  0  0  0  0  0  0  0  0
   -3.6953   -0.5750   -0.6294 H   0  0  0  0  0  0  0  0  0  0  0  0
    1.3522   -1.7350    2.6688 H   0  0  0  0  0  0  0  0  0  0  0  0
    1.0764    2.3327   -0.7756 H   0  0  0  0  0  0  0  0  0  0  0  0
  1  5  3  0
  2 14  1  0
  3 27  1  0
  4 27  1  0
  5 15  1  0
  6  7  2  0
  6  8  1  0
  7  9  1  0
  8 16  2  0
  9 18  2  0
 10 11  2  0
 10 15  1  0
 11 19  1  0
 12 15  2  0
 12 17  1  0
 13 25  2  0
 13 28  1  0
 14 22  1  0
 14 26  1  0
 16 18  1  0
 16 20  1  0
 17 19  2  0
 17 20  1  0
 18 24  1  0
 19 28  1  0
 20 26  2  0
 21 22  2  0
 21 23  1  0
 21 25  1  0
 22 28  1  0
 23 27  1  0
 23 29  2  0
  1 30  1  0
  2 31  1  0
  2 32  1  0
  2 33  1  0
  3 34  1  0
  3 35  1  0
  3 36  1  0
  4 37  1  0
  4 38  1  0
  4 39  1  0
  6 40  1  0
  7 41  1  0
  8 42  1  0
  9 43  1  0
 10 44  1  0
 11 45  1  0
 12 46  1  0
 13 47  1  0
 14 48  1  0
M  END
