
     RDKit          3D

 52 56  0  0  0  0  0  0  0  0999 V2000
    7.6538   -0.2918   -0.4016 C   0  0  0  0  0  0  0  0  0  0  0  0
    7.7235   -0.7605    0.9089 C   0  0  0  0  0  0  0  0  0  0  0  0
    6.5885   -0.6648   -1.2187 C   0  0  0  0  0  0  0  0  0  0  0  0
   -1.3135    1.8693    4.1375 C   0  0  0  0  0  0  0  0  0  0  0  0
   -2.3365    2.3565    3.3313 C   0  0  0  0  0  0  0  0  0  0  0  0
   -5.8889    1.4015   -3.2525 C   0  0  0  0  0  0  0  0  0  0  0  0
   -6.0494   -0.1058   -3.4117 C   0  0  0  0  0  0  0  0  0  0  0  0
    6.7292   -1.6062    1.4033 C   0  0  0  0  0  0  0  0  0  0  0  0
    5.5929   -1.5103   -0.7271 C   0  0  0  0  0  0  0  0  0  0  0  0
   -0.3136    1.0510    3.6014 C   0  0  0  0  0  0  0  0  0  0  0  0
   -2.3907    2.0423    1.9708 C   0  0  0  0  0  0  0  0  0  0  0  0
   -4.8018    1.5809   -2.2016 C   0  0  0  0  0  0  0  0  0  0  0  0
   -5.1094   -0.7118   -2.3829 C   0  0  0  0  0  0  0  0  0  0  0  0
   -3.2274    0.0786   -1.0656 C   0  0  0  0  0  0  0  0  0  0  0  0
   -2.0274    1.0314   -0.9952 C   0  0  0  0  0  0  0  0  0  0  0  0
    4.5770   -2.9083    1.1227 C   0  0  0  0  0  0  0  0  0  0  0  0
   -0.0532   -0.0286    0.1090 C   0  0  0  0  0  0  0  0  0  0  0  0
    5.6538   -1.9944    0.5891 C   0  0  0  0  0  0  0  0  0  0  0  0
   -0.3426    0.7164    2.2305 C   0  0  0  0  0  0  0  0  0  0  0  0
    0.4828   -0.0660    1.3764 C   0  0  0  0  0  0  0  0  0  0  0  0
   -1.3831    1.2203    1.4389 C   0  0  0  0  0  0  0  0  0  0  0  0
    3.5123   -2.0284    1.6649 C   0  0  0  0  0  0  0  0  0  0  0  0
    1.7758   -0.8487    1.7522 C   0  0  0  0  0  0  0  0  0  0  0  0
    2.4795   -1.5568    0.8916 N   0  0  0  0  0  0  0  0  0  0  0  0
    3.4490   -1.6827    2.9583 N   0  0  0  0  0  0  0  0  0  0  0  0
   -4.0697    0.3126   -2.2466 N   0  0  0  0  0  0  0  0  0  0  0  0
   -1.1806    0.7481    0.1559 N   0  0  0  0  0  0  0  0  0  0  0  0
    2.3053   -0.8858    3.0160 O   0  0  0  0  0  0  0  0  0  0  0  0
    8.4267    0.3694   -0.7842 H   0  0  0  0  0  0  0  0  0  0  0  0
    8.5503   -0.4635    1.5488 H   0  0  0  0  0  0  0  0  0  0  0  0
    6.5294   -0.2929   -2.2382 H   0  0  0  0  0  0  0  0  0  0  0  0
   -1.2874    2.1257    5.1938 H   0  0  0  0  0  0  0  0  0  0  0  0
   -3.1051    2.9924    3.7649 H   0  0  0  0  0  0  0  0  0  0  0  0
   -5.5888    1.8470   -4.2080 H   0  0  0  0  0  0  0  0  0  0  0  0
   -6.8250    1.8757   -2.9401 H   0  0  0  0  0  0  0  0  0  0  0  0
   -5.7569   -0.4037   -4.4257 H   0  0  0  0  0  0  0  0  0  0  0  0
   -7.0843   -0.4250   -3.2535 H   0  0  0  0  0  0  0  0  0  0  0  0
    6.7937   -1.9552    2.4321 H   0  0  0  0  0  0  0  0  0  0  0  0
    4.7610   -1.7832   -1.3737 H   0  0  0  0  0  0  0  0  0  0  0  0
    0.4785    0.6805    4.2464 H   0  0  0  0  0  0  0  0  0  0  0  0
   -3.1942    2.4299    1.3528 H   0  0  0  0  0  0  0  0  0  0  0  0
   -4.1641    2.4385   -2.4373 H   0  0  0  0  0  0  0  0  0  0  0  0
   -5.2621    1.7477   -1.2193 H   0  0  0  0  0  0  0  0  0  0  0  0
   -5.6447   -0.8739   -1.4384 H   0  0  0  0  0  0  0  0  0  0  0  0
   -4.7034   -1.6693   -2.7242 H   0  0  0  0  0  0  0  0  0  0  0  0
   -2.8411   -0.9487   -1.1082 H   0  0  0  0  0  0  0  0  0  0  0  0
   -3.8208    0.1459   -0.1442 H   0  0  0  0  0  0  0  0  0  0  0  0
   -1.4046    0.9383   -1.8931 H   0  0  0  0  0  0  0  0  0  0  0  0
   -2.3375    2.0792   -0.9205 H   0  0  0  0  0  0  0  0  0  0  0  0
    4.1849   -3.5471    0.3231 H   0  0  0  0  0  0  0  0  0  0  0  0
    4.9799   -3.5740    1.8946 H   0  0  0  0  0  0  0  0  0  0  0  0
    0.2801   -0.4916   -0.8114 H   0  0  0  0  0  0  0  0  0  0  0  0
  1  2  2  0
  1  3  1  0
  2  8  1  0
  3  9  2  0
  4  5  2  0
  4 10  1  0
  5 11  1  0
  6  7  1  0
  6 12  1  0
  7 13  1  0
  8 18  2  0
  9 18  1  0
 10 19  2  0
 11 21  2  0
 12 26  1  0
 13 26  1  0
 14 15  1  0
 14 26  1  0
 15 27  1  0
 16 18  1  0
 16 22  1  0
 17 20  2  0
 17 27  1  0
 19 20  1  0
 19 21  1  0
 20 23  1  0
 21 27  1  0
 22 24  1  0
 22 25  2  0
 23 24  2  0
 23 28  1  0
 25 28  1  0
  1 29  1  0
  2 30  1  0
  3 31  1  0
  4 32  1  0
  5 33  1  0
  6 34  1  0
  6 35  1  0
  7 36  1  0
  7 37  1  0
  8 38  1  0
  9 39  1  0
 10 40  1  0
 11 41  1  0
 12 42  1  0
 12 43  1  0
 13 44  1  0
 13 45  1  0
 14 46  1  0
 14 47  1  0
 15 48  1  0
 15 49  1  0
 16 50  1  0
 16 51  1  0
 17 52  1  0
M  END
