
     RDKit          3D

 55 57  0  0  0  0  0  0  0  0999 V2000
    4.4048    0.7892    1.7279 C   0  0  0  0  0  0  0  0  0  0  0  0
    6.1099    1.0036   -0.0733 C   0  0  0  0  0  0  0  0  0  0  0  0
    4.9567   -1.1862    0.3026 C   0  0  0  0  0  0  0  0  0  0  0  0
   -2.6872   -4.1123    0.0085 C   0  0  0  0  0  0  0  0  0  0  0  0
   -3.7470   -3.4349    0.5967 C   0  0  0  0  0  0  0  0  0  0  0  0
   -1.4820   -3.4509   -0.1969 C   0  0  0  0  0  0  0  0  0  0  0  0
   -3.6023   -2.0970    0.9829 C   0  0  0  0  0  0  0  0  0  0  0  0
   -4.1676    1.4690   -0.4446 C   0  0  0  0  0  0  0  0  0  0  0  0
   -5.7066    1.3330    1.4152 C   0  0  0  0  0  0  0  0  0  0  0  0
   -5.2014    1.9251   -1.2652 C   0  0  0  0  0  0  0  0  0  0  0  0
   -6.7387    1.7906    0.5938 C   0  0  0  0  0  0  0  0  0  0  0  0
    0.0085   -1.4393   -0.0693 C   0  0  0  0  0  0  0  0  0  0  0  0
   -3.3042    0.6872    1.8387 C   0  0  0  0  0  0  0  0  0  0  0  0
   -0.9836    0.5738    0.9419 C   0  0  0  0  0  0  0  0  0  0  0  0
   -4.4084    1.1525    0.9033 C   0  0  0  0  0  0  0  0  0  0  0  0
   -1.3296   -2.1056    0.1878 C   0  0  0  0  0  0  0  0  0  0  0  0
    0.0808   -0.0102    0.3739 C   0  0  0  0  0  0  0  0  0  0  0  0
   -6.4767    2.0802   -0.7390 C   0  0  0  0  0  0  0  0  0  0  0  0
   -2.3972   -1.3983    0.7936 C   0  0  0  0  0  0  0  0  0  0  0  0
    3.6503    0.8045   -0.6950 C   0  0  0  0  0  0  0  0  0  0  0  0
    3.9833    0.5036   -2.1555 C   0  0  0  0  0  0  0  0  0  0  0  0
    1.3631    0.6924    0.1500 C   0  0  0  0  0  0  0  0  0  0  0  0
    4.7649    0.3427    0.2942 C   0  0  0  0  0  0  0  0  0  0  0  0
   -7.4676    2.5200   -1.5256 F   0  0  0  0  0  0  0  0  0  0  0  0
    4.4469    1.3410   -3.0158 N   0  0  0  0  0  0  0  0  0  0  0  0
    2.3787    0.1473   -0.3939 N   0  0  0  0  0  0  0  0  0  0  0  0
   -2.2102   -0.0423    1.1691 N   0  0  0  0  0  0  0  0  0  0  0  0
    3.7845   -0.7385   -2.5947 O   0  0  0  0  0  0  0  0  0  0  0  0
    1.3304    1.9580    0.6018 O   0  0  0  0  0  0  0  0  0  0  0  0
    3.4968    0.2957    2.0901 H   0  0  0  0  0  0  0  0  0  0  0  0
    5.2081    0.5434    2.4325 H   0  0  0  0  0  0  0  0  0  0  0  0
    4.2449    1.8721    1.7763 H   0  0  0  0  0  0  0  0  0  0  0  0
    6.8832    0.7638    0.6658 H   0  0  0  0  0  0  0  0  0  0  0  0
    6.4781    0.6610   -1.0460 H   0  0  0  0  0  0  0  0  0  0  0  0
    6.0161    2.0947   -0.1122 H   0  0  0  0  0  0  0  0  0  0  0  0
    5.3076   -1.5571   -0.6654 H   0  0  0  0  0  0  0  0  0  0  0  0
    4.0271   -1.7096    0.5504 H   0  0  0  0  0  0  0  0  0  0  0  0
    5.7048   -1.4818    1.0477 H   0  0  0  0  0  0  0  0  0  0  0  0
   -2.7998   -5.1500   -0.2929 H   0  0  0  0  0  0  0  0  0  0  0  0
   -4.6949   -3.9426    0.7549 H   0  0  0  0  0  0  0  0  0  0  0  0
   -0.6540   -3.9819   -0.6615 H   0  0  0  0  0  0  0  0  0  0  0  0
   -4.4702   -1.6218    1.4272 H   0  0  0  0  0  0  0  0  0  0  0  0
   -3.1734    1.3502   -0.8707 H   0  0  0  0  0  0  0  0  0  0  0  0
   -5.9219    1.1154    2.4594 H   0  0  0  0  0  0  0  0  0  0  0  0
   -5.0167    2.1582   -2.3088 H   0  0  0  0  0  0  0  0  0  0  0  0
   -7.7423    1.9249    0.9844 H   0  0  0  0  0  0  0  0  0  0  0  0
    0.7809   -2.0163    0.4554 H   0  0  0  0  0  0  0  0  0  0  0  0
    0.2110   -1.4908   -1.1468 H   0  0  0  0  0  0  0  0  0  0  0  0
   -2.9089    1.5853    2.3331 H   0  0  0  0  0  0  0  0  0  0  0  0
   -3.7171    0.0761    2.6517 H   0  0  0  0  0  0  0  0  0  0  0  0
   -0.9500    1.6104    1.2661 H   0  0  0  0  0  0  0  0  0  0  0  0
    3.5621    1.8955   -0.6434 H   0  0  0  0  0  0  0  0  0  0  0  0
    4.5632    2.2639   -2.5868 H   0  0  0  0  0  0  0  0  0  0  0  0
    4.0208   -0.7441   -3.5364 H   0  0  0  0  0  0  0  0  0  0  0  0
    2.1917    2.3874    0.5575 H   0  0  0  0  0  0  0  0  0  0  0  0
  1 23  1  0
  2 23  1  0
  3 23  1  0
  4  5  2  0
  4  6  1  0
  5  7  1  0
  6 16  2  0
  7 19  2  0
  8 10  2  0
  8 15  1  0
  9 11  1  0
  9 15  2  0
 10 18  1  0
 11 18  2  0
 12 16  1  0
 12 17  1  0
 13 15  1  0
 13 27  1  0
 14 17  2  0
 14 27  1  0
 16 19  1  0
 17 22  1  0
 18 24  1  0
 19 27  1  0
 20 21  1  0
 20 23  1  0
 20 26  1  0
 21 25  2  3
 21 28  1  0
 22 26  2  3
 22 29  1  0
  1 30  1  0
  1 31  1  0
  1 32  1  0
  2 33  1  0
  2 34  1  0
  2 35  1  0
  3 36  1  0
  3 37  1  0
  3 38  1  0
  4 39  1  0
  5 40  1  0
  6 41  1  0
  7 42  1  0
  8 43  1  0
  9 44  1  0
 10 45  1  0
 11 46  1  0
 12 47  1  0
 12 48  1  0
 13 49  1  0
 13 50  1  0
 14 51  1  0
 20 52  1  0
 25 53  1  0
 28 54  1  0
 29 55  1  0
M  END
