
     RDKit          3D

 55 57  0  0  0  0  0  0  0  0999 V2000
    3.5911   -3.7158   -1.1032 C   0  0  0  0  0  0  0  0  0  0  0  0
   -4.0853   -0.1508    2.1682 C   0  0  0  0  0  0  0  0  0  0  0  0
    4.7127   -3.0345   -1.5718 C   0  0  0  0  0  0  0  0  0  0  0  0
    2.6801   -3.0660   -0.2737 C   0  0  0  0  0  0  0  0  0  0  0  0
   -1.2836   -1.3790   -2.6105 C   0  0  0  0  0  0  0  0  0  0  0  0
   -2.6426   -1.2592   -2.3490 C   0  0  0  0  0  0  0  0  0  0  0  0
   -4.4438   -0.6455    3.5678 C   0  0  0  0  0  0  0  0  0  0  0  0
   -3.8830    1.3669    2.1500 C   0  0  0  0  0  0  0  0  0  0  0  0
    4.9239   -1.7025   -1.2117 C   0  0  0  0  0  0  0  0  0  0  0  0
    2.8910   -1.7350    0.0890 C   0  0  0  0  0  0  0  0  0  0  0  0
   -0.3613   -0.5561   -1.9572 C   0  0  0  0  0  0  0  0  0  0  0  0
   -3.1146   -0.3219   -1.4266 C   0  0  0  0  0  0  0  0  0  0  0  0
   -4.6210   -2.1531    3.6025 C   0  0  0  0  0  0  0  0  0  0  0  0
   -3.6109    1.9229    0.7501 C   0  0  0  0  0  0  0  0  0  0  0  0
    4.2338    0.4113   -0.0024 C   0  0  0  0  0  0  0  0  0  0  0  0
   -1.1337    2.0146    0.5276 C   0  0  0  0  0  0  0  0  0  0  0  0
    4.0144   -1.0381   -0.3776 C   0  0  0  0  0  0  0  0  0  0  0  0
   -0.8061    0.4090   -1.0247 C   0  0  0  0  0  0  0  0  0  0  0  0
   -0.1421    1.3835   -0.2036 C   0  0  0  0  0  0  0  0  0  0  0  0
    3.5412    1.4415   -0.9099 C   0  0  0  0  0  0  0  0  0  0  0  0
   -2.1810    0.5004   -0.7713 C   0  0  0  0  0  0  0  0  0  0  0  0
    4.0674    1.3752   -2.3276 C   0  0  0  0  0  0  0  0  0  0  0  0
    1.2747    1.6818   -0.1095 C   0  0  0  0  0  0  0  0  0  0  0  0
   -4.9542   -2.5198    4.8692 F   0  0  0  0  0  0  0  0  0  0  0  0
    3.3833    1.0955   -3.3806 N   0  0  0  0  0  0  0  0  0  0  0  0
    2.0928    1.2118   -0.9713 N   0  0  0  0  0  0  0  0  0  0  0  0
   -2.3472    1.4816    0.1827 N   0  0  0  0  0  0  0  0  0  0  0  0
    5.3568    1.6637   -2.5021 O   0  0  0  0  0  0  0  0  0  0  0  0
    1.6177    2.4574    0.9398 O   0  0  0  0  0  0  0  0  0  0  0  0
    3.4251   -4.7511   -1.3881 H   0  0  0  0  0  0  0  0  0  0  0  0
   -3.1710   -0.6545    1.8346 H   0  0  0  0  0  0  0  0  0  0  0  0
   -4.8835   -0.4245    1.4678 H   0  0  0  0  0  0  0  0  0  0  0  0
    5.4214   -3.5386   -2.2233 H   0  0  0  0  0  0  0  0  0  0  0  0
    1.8004   -3.5924    0.0870 H   0  0  0  0  0  0  0  0  0  0  0  0
   -0.9292   -2.1155   -3.3273 H   0  0  0  0  0  0  0  0  0  0  0  0
   -3.3482   -1.9046   -2.8669 H   0  0  0  0  0  0  0  0  0  0  0  0
   -5.3675   -0.1679    3.9156 H   0  0  0  0  0  0  0  0  0  0  0  0
   -3.6639   -0.3609    4.2842 H   0  0  0  0  0  0  0  0  0  0  0  0
   -4.7848    1.8531    2.5420 H   0  0  0  0  0  0  0  0  0  0  0  0
   -3.0602    1.6330    2.8250 H   0  0  0  0  0  0  0  0  0  0  0  0
    5.8010   -1.1848   -1.5939 H   0  0  0  0  0  0  0  0  0  0  0  0
    2.1630   -1.2421    0.7293 H   0  0  0  0  0  0  0  0  0  0  0  0
    0.6984   -0.6713   -2.1693 H   0  0  0  0  0  0  0  0  0  0  0  0
   -4.1786   -0.2451   -1.2292 H   0  0  0  0  0  0  0  0  0  0  0  0
   -5.4241   -2.4797    2.9355 H   0  0  0  0  0  0  0  0  0  0  0  0
   -3.6978   -2.6738    3.3322 H   0  0  0  0  0  0  0  0  0  0  0  0
   -3.5705    3.0184    0.7903 H   0  0  0  0  0  0  0  0  0  0  0  0
   -4.4190    1.6623    0.0594 H   0  0  0  0  0  0  0  0  0  0  0  0
    5.3138    0.6079    0.0213 H   0  0  0  0  0  0  0  0  0  0  0  0
    3.8925    0.5515    1.0319 H   0  0  0  0  0  0  0  0  0  0  0  0
   -1.0609    2.8051    1.2640 H   0  0  0  0  0  0  0  0  0  0  0  0
    3.7672    2.4575   -0.5646 H   0  0  0  0  0  0  0  0  0  0  0  0
    2.4206    0.9115   -3.0446 H   0  0  0  0  0  0  0  0  0  0  0  0
    5.5194    1.5836   -3.4588 H   0  0  0  0  0  0  0  0  0  0  0  0
    2.5660    2.6195    0.9833 H   0  0  0  0  0  0  0  0  0  0  0  0
  1  3  2  0
  1  4  1  0
  2  7  1  0
  2  8  1  0
  3  9  1  0
  4 10  2  0
  5  6  2  0
  5 11  1  0
  6 12  1  0
  7 13  1  0
  8 14  1  0
  9 17  2  0
 10 17  1  0
 11 18  2  0
 12 21  2  0
 13 24  1  0
 14 27  1  0
 15 17  1  0
 15 20  1  0
 16 19  2  0
 16 27  1  0
 18 19  1  0
 18 21  1  0
 19 23  1  0
 20 22  1  0
 20 26  1  0
 21 27  1  0
 22 25  2  3
 22 28  1  0
 23 26  2  3
 23 29  1  0
  1 30  1  0
  2 31  1  0
  2 32  1  0
  3 33  1  0
  4 34  1  0
  5 35  1  0
  6 36  1  0
  7 37  1  0
  7 38  1  0
  8 39  1  0
  8 40  1  0
  9 41  1  0
 10 42  1  0
 11 43  1  0
 12 44  1  0
 13 45  1  0
 13 46  1  0
 14 47  1  0
 14 48  1  0
 15 49  1  0
 15 50  1  0
 16 51  1  0
 20 52  1  0
 25 53  1  0
 28 54  1  0
 29 55  1  0
M  END
