
     RDKit          3D

 57 60  0  0  0  0  0  0  0  0999 V2000
    4.9530   -0.6849    1.5095 C   0  0  0  0  0  0  0  0  0  0  0  0
    4.0563    1.4909    2.2134 C   0  0  0  0  0  0  0  0  0  0  0  0
    4.1481    1.7304   -2.9722 C   0  0  0  0  0  0  0  0  0  0  0  0
   -5.3365    1.0136   -1.2923 C   0  0  0  0  0  0  0  0  0  0  0  0
    3.9952    2.6551   -1.9455 C   0  0  0  0  0  0  0  0  0  0  0  0
    4.2069    0.3752   -2.6709 C   0  0  0  0  0  0  0  0  0  0  0  0
   -4.8732    2.4442   -1.0651 C   0  0  0  0  0  0  0  0  0  0  0  0
   -4.1860    0.0808   -1.6670 C   0  0  0  0  0  0  0  0  0  0  0  0
   -1.1931   -4.7175    0.1761 C   0  0  0  0  0  0  0  0  0  0  0  0
   -2.4883   -4.2480    0.3537 C   0  0  0  0  0  0  0  0  0  0  0  0
    3.9062    2.2257   -0.6163 C   0  0  0  0  0  0  0  0  0  0  0  0
    4.1193   -0.0523   -1.3426 C   0  0  0  0  0  0  0  0  0  0  0  0
   -3.8354    2.5244    0.0545 C   0  0  0  0  0  0  0  0  0  0  0  0
   -2.8030    0.6301   -1.3175 C   0  0  0  0  0  0  0  0  0  0  0  0
   -0.1017   -3.8698    0.3753 C   0  0  0  0  0  0  0  0  0  0  0  0
   -2.7305   -2.9237    0.7340 C   0  0  0  0  0  0  0  0  0  0  0  0
    3.9789    0.8613   -0.2788 C   0  0  0  0  0  0  0  0  0  0  0  0
   -2.7568    1.4279   -0.0128 C   0  0  0  0  0  0  0  0  0  0  0  0
   -0.3199   -2.5291    0.7551 C   0  0  0  0  0  0  0  0  0  0  0  0
   -1.6294   -2.0693    0.9307 C   0  0  0  0  0  0  0  0  0  0  0  0
    0.5236   -1.4153    1.0259 C   0  0  0  0  0  0  0  0  0  0  0  0
    1.9981   -1.3685    0.9758 C   0  0  0  0  0  0  0  0  0  0  0  0
    3.8602    0.3572    1.1729 C   0  0  0  0  0  0  0  0  0  0  0  0
    2.4991   -0.1516    1.3833 N   0  0  0  0  0  0  0  0  0  0  0  0
   -0.1941   -0.3152    1.3192 N   0  0  0  0  0  0  0  0  0  0  0  0
   -1.4905   -0.7439    1.3066 N   0  0  0  0  0  0  0  0  0  0  0  0
    2.6743   -2.3190    0.6021 O   0  0  0  0  0  0  0  0  0  0  0  0
   -4.0400   -0.3821    1.4715 O   0  0  0  0  0  0  0  0  0  0  0  0
   -2.4433    1.2042    2.6007 O   0  0  0  0  0  0  0  0  0  0  0  0
   -2.8103    0.3861    1.4560 S   0  0  0  0  0  6  0  0  0  0  0  0
    4.9514   -1.5562    0.8498 H   0  0  0  0  0  0  0  0  0  0  0  0
    5.9524   -0.2392    1.4331 H   0  0  0  0  0  0  0  0  0  0  0  0
    4.8310   -1.0643    2.5312 H   0  0  0  0  0  0  0  0  0  0  0  0
    3.2676    2.2501    2.1504 H   0  0  0  0  0  0  0  0  0  0  0  0
    4.0134    1.0946    3.2358 H   0  0  0  0  0  0  0  0  0  0  0  0
    5.0241    1.9910    2.0906 H   0  0  0  0  0  0  0  0  0  0  0  0
    4.2173    2.0641   -4.0038 H   0  0  0  0  0  0  0  0  0  0  0  0
   -5.8225    0.6446   -0.3808 H   0  0  0  0  0  0  0  0  0  0  0  0
   -6.1013    0.9865   -2.0771 H   0  0  0  0  0  0  0  0  0  0  0  0
    3.9432    3.7164   -2.1757 H   0  0  0  0  0  0  0  0  0  0  0  0
    4.3181   -0.3564   -3.4671 H   0  0  0  0  0  0  0  0  0  0  0  0
   -5.7299    3.0803   -0.8148 H   0  0  0  0  0  0  0  0  0  0  0  0
   -4.4478    2.8451   -1.9935 H   0  0  0  0  0  0  0  0  0  0  0  0
   -4.2158   -0.1179   -2.7457 H   0  0  0  0  0  0  0  0  0  0  0  0
   -4.3412   -0.8911   -1.1851 H   0  0  0  0  0  0  0  0  0  0  0  0
   -1.0251   -5.7515   -0.1164 H   0  0  0  0  0  0  0  0  0  0  0  0
   -3.3297   -4.9218    0.2019 H   0  0  0  0  0  0  0  0  0  0  0  0
    3.7793    2.9925    0.1427 H   0  0  0  0  0  0  0  0  0  0  0  0
    4.1536   -1.1237   -1.1538 H   0  0  0  0  0  0  0  0  0  0  0  0
   -4.3558    2.5067    1.0197 H   0  0  0  0  0  0  0  0  0  0  0  0
   -3.3505    3.5072   -0.0022 H   0  0  0  0  0  0  0  0  0  0  0  0
   -2.4905    1.2995   -2.1308 H   0  0  0  0  0  0  0  0  0  0  0  0
   -2.0751   -0.1872   -1.3194 H   0  0  0  0  0  0  0  0  0  0  0  0
    0.9097   -4.2460    0.2342 H   0  0  0  0  0  0  0  0  0  0  0  0
   -3.7572   -2.6000    0.8785 H   0  0  0  0  0  0  0  0  0  0  0  0
   -1.7753    1.9164    0.0537 H   0  0  0  0  0  0  0  0  0  0  0  0
    1.7696    0.5438    1.5159 H   0  0  0  0  0  0  0  0  0  0  0  0
  1 23  1  0
  2 23  1  0
  3  5  2  0
  3  6  1  0
  4  7  1  0
  4  8  1  0
  5 11  1  0
  6 12  2  0
  7 13  1  0
  8 14  1  0
  9 10  2  0
  9 15  1  0
 10 16  1  0
 11 17  2  0
 12 17  1  0
 13 18  1  0
 14 18  1  0
 15 19  2  0
 16 20  2  0
 17 23  1  0
 18 30  1  0
 19 20  1  0
 19 21  1  0
 20 26  1  0
 21 22  1  0
 21 25  2  0
 22 24  1  0
 22 27  2  0
 23 24  1  0
 25 26  1  0
 26 30  1  0
 28 30  2  0
 29 30  2  0
  1 31  1  0
  1 32  1  0
  1 33  1  0
  2 34  1  0
  2 35  1  0
  2 36  1  0
  3 37  1  0
  4 38  1  0
  4 39  1  0
  5 40  1  0
  6 41  1  0
  7 42  1  0
  7 43  1  0
  8 44  1  0
  8 45  1  0
  9 46  1  0
 10 47  1  0
 11 48  1  0
 12 49  1  0
 13 50  1  0
 13 51  1  0
 14 52  1  0
 14 53  1  0
 15 54  1  0
 16 55  1  0
 18 56  1  0
 24 57  1  0
M  END
