
     RDKit          3D

 59 61  0  0  0  0  0  0  0  0999 V2000
   -4.7828   -2.7412    1.6962 C   0  0  0  0  0  0  0  0  0  0  0  0
   -3.1505   -2.2453    3.4840 C   0  0  0  0  0  0  0  0  0  0  0  0
   -4.8854   -0.5571    2.9725 C   0  0  0  0  0  0  0  0  0  0  0  0
   -4.4440   -0.0518   -2.8851 C   0  0  0  0  0  0  0  0  0  0  0  0
   -3.8937    2.2576   -2.0121 C   0  0  0  0  0  0  0  0  0  0  0  0
   -2.2604    0.9715   -3.3740 C   0  0  0  0  0  0  0  0  0  0  0  0
   -1.6578   -0.8815    1.4085 C   0  0  0  0  0  0  0  0  0  0  0  0
   -1.3971    0.2918   -0.6959 C   0  0  0  0  0  0  0  0  0  0  0  0
    5.8555    1.5812   -0.9647 C   0  0  0  0  0  0  0  0  0  0  0  0
    7.1068   -0.2794    0.7766 C   0  0  0  0  0  0  0  0  0  0  0  0
    0.6144   -0.2394    0.6923 C   0  0  0  0  0  0  0  0  0  0  0  0
    9.3327    2.0431   -0.6449 C   0  0  0  0  0  0  0  0  0  0  0  0
   -0.8429   -0.2704    0.4558 C   0  0  0  0  0  0  0  0  0  0  0  0
    5.0843    0.5975   -0.3233 C   0  0  0  0  0  0  0  0  0  0  0  0
   -3.0532   -0.9264    1.2497 C   0  0  0  0  0  0  0  0  0  0  0  0
   -2.7836    0.2615   -0.9383 C   0  0  0  0  0  0  0  0  0  0  0  0
    5.7254   -0.3206    0.5326 C   0  0  0  0  0  0  0  0  0  0  0  0
    7.2139    1.6054   -0.7161 C   0  0  0  0  0  0  0  0  0  0  0  0
    7.8195    0.7049    0.1308 C   0  0  0  0  0  0  0  0  0  0  0  0
   -3.5846   -0.3203    0.0791 C   0  0  0  0  0  0  0  0  0  0  0  0
    3.6289    0.5942   -0.5201 C   0  0  0  0  0  0  0  0  0  0  0  0
   -3.9493   -1.5990    2.3208 C   0  0  0  0  0  0  0  0  0  0  0  0
   -3.3414    0.8400   -2.2646 C   0  0  0  0  0  0  0  0  0  0  0  0
    1.4435    0.3132   -0.1390 N   0  0  0  0  0  0  0  0  0  0  0  0
    2.7534    0.1988    0.3412 N   0  0  0  0  0  0  0  0  0  0  0  0
    4.9845   -1.3991    1.1492 N   0  0  0  0  0  4  0  0  0  0  0  0
   -4.9478   -0.3008   -0.0296 O   0  0  0  0  0  0  0  0  0  0  0  0
    3.2443    1.0575   -1.7211 O   0  0  0  0  0  0  0  0  0  0  0  0
    4.5789   -2.2979    0.4013 O   0  0  0  0  0  1  0  0  0  0  0  0
    4.8843   -1.3754    2.3831 O   0  0  0  0  0  0  0  0  0  0  0  0
    8.0995    2.4899   -1.2472 O   0  0  0  0  0  0  0  0  0  0  0  0
    9.1592    0.9091    0.2318 O   0  0  0  0  0  0  0  0  0  0  0  0
   -5.5182   -2.3871    0.9688 H   0  0  0  0  0  0  0  0  0  0  0  0
   -5.3462   -3.2837    2.4648 H   0  0  0  0  0  0  0  0  0  0  0  0
   -4.1363   -3.4647    1.1854 H   0  0  0  0  0  0  0  0  0  0  0  0
   -2.5663   -1.5009    4.0377 H   0  0  0  0  0  0  0  0  0  0  0  0
   -3.8219   -2.7224    4.2084 H   0  0  0  0  0  0  0  0  0  0  0  0
   -2.4670   -3.0224    3.1220 H   0  0  0  0  0  0  0  0  0  0  0  0
   -5.4649   -1.0044    3.7889 H   0  0  0  0  0  0  0  0  0  0  0  0
   -4.3119    0.2784    3.3911 H   0  0  0  0  0  0  0  0  0  0  0  0
   -5.6111   -0.1366    2.2709 H   0  0  0  0  0  0  0  0  0  0  0  0
   -5.3889   -0.0131   -2.3379 H   0  0  0  0  0  0  0  0  0  0  0  0
   -4.6864    0.2696   -3.9055 H   0  0  0  0  0  0  0  0  0  0  0  0
   -4.1229   -1.0986   -2.9363 H   0  0  0  0  0  0  0  0  0  0  0  0
   -3.1150    2.9194   -1.6142 H   0  0  0  0  0  0  0  0  0  0  0  0
   -4.7202    2.2675   -1.2962 H   0  0  0  0  0  0  0  0  0  0  0  0
   -4.2670    2.7057   -2.9406 H   0  0  0  0  0  0  0  0  0  0  0  0
   -1.7588    0.0143   -3.5589 H   0  0  0  0  0  0  0  0  0  0  0  0
   -2.7022    1.2991   -4.3231 H   0  0  0  0  0  0  0  0  0  0  0  0
   -1.4987    1.7183   -3.1227 H   0  0  0  0  0  0  0  0  0  0  0  0
   -1.1787   -1.3154    2.2808 H   0  0  0  0  0  0  0  0  0  0  0  0
   -0.7146    0.7492   -1.4049 H   0  0  0  0  0  0  0  0  0  0  0  0
    5.4070    2.3147   -1.6278 H   0  0  0  0  0  0  0  0  0  0  0  0
    7.5999   -0.9898    1.4318 H   0  0  0  0  0  0  0  0  0  0  0  0
    0.9797   -0.7129    1.6229 H   0  0  0  0  0  0  0  0  0  0  0  0
   10.0333    1.7672   -1.4414 H   0  0  0  0  0  0  0  0  0  0  0  0
    9.7617    2.8704   -0.0678 H   0  0  0  0  0  0  0  0  0  0  0  0
   -5.2081    0.5857   -0.3205 H   0  0  0  0  0  0  0  0  0  0  0  0
    2.2691    0.9809   -1.7049 H   0  0  0  0  0  0  0  0  0  0  0  0
  1 22  1  0
  2 22  1  0
  3 22  1  0
  4 23  1  0
  5 23  1  0
  6 23  1  0
  7 13  2  0
  7 15  1  0
  8 13  1  0
  8 16  2  0
  9 14  2  0
  9 18  1  0
 10 17  2  0
 10 19  1  0
 11 13  1  0
 11 24  2  3
 12 31  1  0
 12 32  1  0
 14 17  1  0
 14 21  1  0
 15 20  2  0
 15 22  1  0
 16 20  1  0
 16 23  1  0
 17 26  1  0
 18 19  2  0
 18 31  1  0
 19 32  1  0
 20 27  1  0
 21 25  2  3
 21 28  1  0
 24 25  1  0
 26 29  1  0
 26 30  2  0
  1 33  1  0
  1 34  1  0
  1 35  1  0
  2 36  1  0
  2 37  1  0
  2 38  1  0
  3 39  1  0
  3 40  1  0
  3 41  1  0
  4 42  1  0
  4 43  1  0
  4 44  1  0
  5 45  1  0
  5 46  1  0
  5 47  1  0
  6 48  1  0
  6 49  1  0
  6 50  1  0
  7 51  1  0
  8 52  1  0
  9 53  1  0
 10 54  1  0
 11 55  1  0
 12 56  1  0
 12 57  1  0
 27 58  1  0
 28 59  1  0
M  CHG  2  26   1  29  -1
M  END
