
     RDKit          3D

 61 64  0  0  0  0  0  0  0  0999 V2000
   -0.1894    1.4083    2.1973 C   0  0  0  0  0  0  0  0  0  0  0  0
    1.7243   -2.1510    0.9748 C   0  0  0  0  0  0  0  0  0  0  0  0
   -5.9955   -2.8405    0.3819 C   0  0  0  0  0  0  0  0  0  0  0  0
   -2.4090    5.0616    1.2682 C   0  0  0  0  0  0  0  0  0  0  0  0
    2.2898    1.6859    0.4441 C   0  0  0  0  0  0  0  0  0  0  0  0
    4.9584   -0.8722   -3.4864 C   0  0  0  0  0  0  0  0  0  0  0  0
    0.8786    2.0465    0.0002 C   0  0  0  0  0  0  0  0  0  0  0  0
    4.8683   -1.0656   -4.8433 C   0  0  0  0  0  0  0  0  0  0  0  0
   -2.6131    0.5173   -0.1896 C   0  0  0  0  0  0  0  0  0  0  0  0
    1.9003   -0.9997   -1.2506 C   0  0  0  0  0  0  0  0  0  0  0  0
    3.0205   -1.8474   -3.9940 C   0  0  0  0  0  0  0  0  0  0  0  0
   -3.8996   -2.4802    1.4158 C   0  0  0  0  0  0  0  0  0  0  0  0
    3.7478   -1.3735   -2.9168 C   0  0  0  0  0  0  0  0  0  0  0  0
    2.5140    0.2155    0.8272 C   0  0  0  0  0  0  0  0  0  0  0  0
   -1.6200    1.6687    0.0637 C   0  0  0  0  0  0  0  0  0  0  0  0
   -2.5481   -0.6034    0.8494 C   0  0  0  0  0  0  0  0  0  0  0  0
    3.3629   -1.3967   -1.4609 C   0  0  0  0  0  0  0  0  0  0  0  0
   -1.0953   -1.1082    1.0182 C   0  0  0  0  0  0  0  0  0  0  0  0
   -0.0030   -0.2997    0.2769 C   0  0  0  0  0  0  0  0  0  0  0  0
   -2.3068    2.7552    0.8817 C   0  0  0  0  0  0  0  0  0  0  0  0
    3.9698   -0.0970    0.5257 C   0  0  0  0  0  0  0  0  0  0  0  0
   -0.2314    1.2026    0.6582 C   0  0  0  0  0  0  0  0  0  0  0  0
    1.5130   -0.8030    0.2419 C   0  0  0  0  0  0  0  0  0  0  0  0
   -0.8566   -2.0808    1.7288 O   0  0  0  0  0  0  0  0  0  0  0  0
   -3.1625    2.5399    1.7310 O   0  0  0  0  0  0  0  0  0  0  0  0
    4.8606    0.1962    1.3189 O   0  0  0  0  0  0  0  0  0  0  0  0
   -4.8152   -3.4414    0.8945 O   0  0  0  0  0  0  0  0  0  0  0  0
   -1.8192    3.9798    0.5448 O   0  0  0  0  0  0  0  0  0  0  0  0
    3.6893   -1.6575   -5.1575 O   0  0  0  0  0  0  0  0  0  0  0  0
   -3.4308   -1.6187    0.3847 O   0  0  0  0  0  0  0  0  0  0  0  0
    4.2688   -0.5730   -0.7003 O   0  0  0  0  0  0  0  0  0  0  0  0
    0.6804    0.9455    2.6667 H   0  0  0  0  0  0  0  0  0  0  0  0
   -0.1570    2.4745    2.4527 H   0  0  0  0  0  0  0  0  0  0  0  0
   -1.0669    0.9836    2.6962 H   0  0  0  0  0  0  0  0  0  0  0  0
    2.7648   -2.4907    0.9452 H   0  0  0  0  0  0  0  0  0  0  0  0
    1.1222   -2.9493    0.5267 H   0  0  0  0  0  0  0  0  0  0  0  0
    1.4811   -2.0635    2.0393 H   0  0  0  0  0  0  0  0  0  0  0  0
   -6.5118   -2.2692    1.1612 H   0  0  0  0  0  0  0  0  0  0  0  0
   -6.6622   -3.6360    0.0354 H   0  0  0  0  0  0  0  0  0  0  0  0
   -5.7654   -2.1926   -0.4691 H   0  0  0  0  0  0  0  0  0  0  0  0
   -2.0757    5.0381    2.3114 H   0  0  0  0  0  0  0  0  0  0  0  0
   -3.5028    5.0252    1.2085 H   0  0  0  0  0  0  0  0  0  0  0  0
   -2.0700    5.9988    0.8143 H   0  0  0  0  0  0  0  0  0  0  0  0
    2.5514    2.3019    1.3149 H   0  0  0  0  0  0  0  0  0  0  0  0
    2.9833    2.0066   -0.3432 H   0  0  0  0  0  0  0  0  0  0  0  0
    5.7958   -0.4319   -2.9587 H   0  0  0  0  0  0  0  0  0  0  0  0
    0.7188    3.1157    0.1869 H   0  0  0  0  0  0  0  0  0  0  0  0
    0.8241    1.9297   -1.0903 H   0  0  0  0  0  0  0  0  0  0  0  0
    5.5207   -0.8518   -5.6774 H   0  0  0  0  0  0  0  0  0  0  0  0
   -3.6429    0.8917   -0.2606 H   0  0  0  0  0  0  0  0  0  0  0  0
   -2.4174    0.0913   -1.1845 H   0  0  0  0  0  0  0  0  0  0  0  0
    1.2480   -1.7569   -1.7074 H   0  0  0  0  0  0  0  0  0  0  0  0
    1.7125   -0.0661   -1.7971 H   0  0  0  0  0  0  0  0  0  0  0  0
    2.0504   -2.3181   -4.0974 H   0  0  0  0  0  0  0  0  0  0  0  0
   -3.0684   -3.0455    1.8412 H   0  0  0  0  0  0  0  0  0  0  0  0
   -4.3830   -1.9056    2.2145 H   0  0  0  0  0  0  0  0  0  0  0  0
    2.4423    0.1391    1.9196 H   0  0  0  0  0  0  0  0  0  0  0  0
   -1.4608    2.1097   -0.9322 H   0  0  0  0  0  0  0  0  0  0  0  0
   -2.8862   -0.2110    1.8167 H   0  0  0  0  0  0  0  0  0  0  0  0
    3.5253   -2.4272   -1.1215 H   0  0  0  0  0  0  0  0  0  0  0  0
   -0.3212   -0.4041   -0.7716 H   0  0  0  0  0  0  0  0  0  0  0  0
  1 22  1  0
  2 23  1  0
  3 27  1  0
  4 28  1  0
  5  7  1  0
  5 14  1  0
  6  8  2  0
  6 13  1  0
  7 22  1  0
  8 29  1  0
  9 15  1  0
  9 16  1  0
 10 17  1  0
 10 23  1  0
 11 13  2  0
 11 29  1  0
 12 27  1  0
 12 30  1  0
 13 17  1  0
 14 21  1  0
 14 23  1  0
 15 20  1  0
 15 22  1  0
 16 18  1  0
 16 30  1  0
 17 31  1  0
 18 19  1  0
 18 24  2  0
 19 22  1  0
 19 23  1  0
 20 25  2  0
 20 28  1  0
 21 26  2  0
 21 31  1  0
  1 32  1  0
  1 33  1  0
  1 34  1  0
  2 35  1  0
  2 36  1  0
  2 37  1  0
  3 38  1  0
  3 39  1  0
  3 40  1  0
  4 41  1  0
  4 42  1  0
  4 43  1  0
  5 44  1  0
  5 45  1  0
  6 46  1  0
  7 47  1  0
  7 48  1  0
  8 49  1  0
  9 50  1  0
  9 51  1  0
 10 52  1  0
 10 53  1  0
 11 54  1  0
 12 55  1  0
 12 56  1  0
 14 57  1  0
 15 58  1  0
 16 59  1  0
 17 60  1  0
 19 61  1  0
M  END
