
     RDKit          3D

 57 61  0  0  0  0  0  0  0  0999 V2000
   -6.3611   -1.0899    0.3347 C   0  0  0  0  0  0  0  0  0  0  0  0
   -0.8216    0.7476   -4.1211 C   0  0  0  0  0  0  0  0  0  0  0  0
   -2.2054    0.8006   -4.2572 C   0  0  0  0  0  0  0  0  0  0  0  0
   -6.5460   -1.2899    1.8434 C   0  0  0  0  0  0  0  0  0  0  0  0
   -4.9033   -1.0399   -0.1297 C   0  0  0  0  0  0  0  0  0  0  0  0
   -0.2339    0.5806   -2.8615 C   0  0  0  0  0  0  0  0  0  0  0  0
   -3.0415    0.6906   -3.1432 C   0  0  0  0  0  0  0  0  0  0  0  0
   -5.9797   -0.1757    2.7045 C   0  0  0  0  0  0  0  0  0  0  0  0
   -4.3612    0.3855   -0.2490 C   0  0  0  0  0  0  0  0  0  0  0  0
    4.8914   -0.1803    2.2390 C   0  0  0  0  0  0  0  0  0  0  0  0
    5.5135   -1.1396    0.0063 C   0  0  0  0  0  0  0  0  0  0  0  0
    5.5559    1.3422    0.3595 C   0  0  0  0  0  0  0  0  0  0  0  0
    3.1318   -1.2249    0.7863 C   0  0  0  0  0  0  0  0  0  0  0  0
    3.1747    1.2863    1.1436 C   0  0  0  0  0  0  0  0  0  0  0  0
    3.7840    0.3102   -1.0754 C   0  0  0  0  0  0  0  0  0  0  0  0
    4.6017   -1.3088    1.2324 C   0  0  0  0  0  0  0  0  0  0  0  0
    4.6445    1.1932    1.5884 C   0  0  0  0  0  0  0  0  0  0  0  0
    5.2581    0.2250   -0.6533 C   0  0  0  0  0  0  0  0  0  0  0  0
   -1.0544    0.4660   -1.7183 C   0  0  0  0  0  0  0  0  0  0  0  0
   -2.4375    0.5267   -1.8873 C   0  0  0  0  0  0  0  0  0  0  0  0
   -0.8514    0.2856   -0.3098 C   0  0  0  0  0  0  0  0  0  0  0  0
    0.4169    0.1549    0.4310 C   0  0  0  0  0  0  0  0  0  0  0  0
    2.8461    0.1521    0.1484 C   0  0  0  0  0  0  0  0  0  0  0  0
   -6.4855    1.0125    2.2796 F   0  0  0  0  0  0  0  0  0  0  0  0
   -2.0341    0.2370    0.3361 N   0  0  0  0  0  0  0  0  0  0  0  0
   -2.9572    0.3924   -0.6269 N   0  0  0  0  0  0  0  0  0  0  0  0
    0.4837   -0.0210    1.6428 O   0  0  0  0  0  0  0  0  0  0  0  0
    1.5083    0.2508   -0.3841 O   0  0  0  0  0  0  0  0  0  0  0  0
   -6.9030   -0.1962    0.0028 H   0  0  0  0  0  0  0  0  0  0  0  0
   -6.8440   -1.9417   -0.1615 H   0  0  0  0  0  0  0  0  0  0  0  0
   -0.1884    0.8357   -5.0010 H   0  0  0  0  0  0  0  0  0  0  0  0
   -2.6435    0.9300   -5.2446 H   0  0  0  0  0  0  0  0  0  0  0  0
   -7.6233   -1.3608    2.0371 H   0  0  0  0  0  0  0  0  0  0  0  0
   -6.1043   -2.2453    2.1494 H   0  0  0  0  0  0  0  0  0  0  0  0
   -4.2707   -1.6458    0.5306 H   0  0  0  0  0  0  0  0  0  0  0  0
   -4.8411   -1.5089   -1.1208 H   0  0  0  0  0  0  0  0  0  0  0  0
    0.8485    0.5401   -2.7812 H   0  0  0  0  0  0  0  0  0  0  0  0
   -4.1198    0.7323   -3.2585 H   0  0  0  0  0  0  0  0  0  0  0  0
   -6.2688   -0.3102    3.7509 H   0  0  0  0  0  0  0  0  0  0  0  0
   -4.8888   -0.1287    2.6549 H   0  0  0  0  0  0  0  0  0  0  0  0
   -4.4373    0.9382    0.6917 H   0  0  0  0  0  0  0  0  0  0  0  0
   -4.9188    0.9535   -1.0012 H   0  0  0  0  0  0  0  0  0  0  0  0
    5.9303   -0.2472    2.5848 H   0  0  0  0  0  0  0  0  0  0  0  0
    4.2534   -0.2953    3.1239 H   0  0  0  0  0  0  0  0  0  0  0  0
    6.5654   -1.2199    0.3071 H   0  0  0  0  0  0  0  0  0  0  0  0
    5.3258   -1.9453   -0.7141 H   0  0  0  0  0  0  0  0  0  0  0  0
    6.6084    1.3003    0.6657 H   0  0  0  0  0  0  0  0  0  0  0  0
    5.3985    2.3225   -0.1069 H   0  0  0  0  0  0  0  0  0  0  0  0
    2.4839   -1.4024    1.6514 H   0  0  0  0  0  0  0  0  0  0  0  0
    2.8984   -2.0258    0.0729 H   0  0  0  0  0  0  0  0  0  0  0  0
    2.9716    2.2616    0.6829 H   0  0  0  0  0  0  0  0  0  0  0  0
    2.5290    1.2371    2.0269 H   0  0  0  0  0  0  0  0  0  0  0  0
    3.5577   -0.4624   -1.8225 H   0  0  0  0  0  0  0  0  0  0  0  0
    3.5872    1.2675   -1.5764 H   0  0  0  0  0  0  0  0  0  0  0  0
    4.7904   -2.2808    1.7016 H   0  0  0  0  0  0  0  0  0  0  0  0
    4.8633    1.9890    2.3091 H   0  0  0  0  0  0  0  0  0  0  0  0
    5.9035    0.3389   -1.5312 H   0  0  0  0  0  0  0  0  0  0  0  0
  1  4  1  0
  1  5  1  0
  2  3  2  0
  2  6  1  0
  3  7  1  0
  4  8  1  0
  5  9  1  0
  6 19  2  0
  7 20  2  0
  8 24  1  0
  9 26  1  0
 10 16  1  0
 10 17  1  0
 11 16  1  0
 11 18  1  0
 12 17  1  0
 12 18  1  0
 13 16  1  0
 13 23  1  0
 14 17  1  0
 14 23  1  0
 15 18  1  0
 15 23  1  0
 19 20  1  0
 19 21  1  0
 20 26  1  0
 21 22  1  0
 21 25  2  0
 22 27  2  0
 22 28  1  0
 23 28  1  0
 25 26  1  0
  1 29  1  0
  1 30  1  0
  2 31  1  0
  3 32  1  0
  4 33  1  0
  4 34  1  0
  5 35  1  0
  5 36  1  0
  6 37  1  0
  7 38  1  0
  8 39  1  0
  8 40  1  0
  9 41  1  0
  9 42  1  0
 10 43  1  0
 10 44  1  0
 11 45  1  0
 11 46  1  0
 12 47  1  0
 12 48  1  0
 13 49  1  0
 13 50  1  0
 14 51  1  0
 14 52  1  0
 15 53  1  0
 15 54  1  0
 16 55  1  0
 17 56  1  0
 18 57  1  0
M  END
