
     RDKit          3D

 56 60  0  0  0  0  0  0  0  0999 V2000
   -3.4854   -3.0762   -1.2536 C   0  0  0  0  0  0  0  0  0  0  0  0
   -0.1548   -2.8224    2.2657 C   0  0  0  0  0  0  0  0  0  0  0  0
    5.1507    0.7495   -1.6613 C   0  0  0  0  0  0  0  0  0  0  0  0
    3.8936    0.1536   -2.3198 C   0  0  0  0  0  0  0  0  0  0  0  0
    5.1100   -0.4229   -0.6669 C   0  0  0  0  0  0  0  0  0  0  0  0
   -1.0223    3.5577    0.9098 C   0  0  0  0  0  0  0  0  0  0  0  0
   -2.0585    4.2432    0.2841 C   0  0  0  0  0  0  0  0  0  0  0  0
   -0.8185   -0.3143   -1.4701 C   0  0  0  0  0  0  0  0  0  0  0  0
    0.6280    0.1772   -1.3318 C   0  0  0  0  0  0  0  0  0  0  0  0
   -2.2431   -2.8542    0.8985 C   0  0  0  0  0  0  0  0  0  0  0  0
    0.2647    1.4885    1.4637 C   0  0  0  0  0  0  0  0  0  0  0  0
   -2.8527    2.1603   -0.6519 C   0  0  0  0  0  0  0  0  0  0  0  0
   -3.0493   -0.7898   -0.3312 C   0  0  0  0  0  0  0  0  0  0  0  0
    2.6664    0.1445    0.0222 C   0  0  0  0  0  0  0  0  0  0  0  0
   -2.9663   -2.2954   -0.2931 C   0  0  0  0  0  0  0  0  0  0  0  0
   -0.8348   -2.2485    1.0166 C   0  0  0  0  0  0  0  0  0  0  0  0
    3.5924   -0.5684   -0.9742 C   0  0  0  0  0  0  0  0  0  0  0  0
   -0.8882    2.1657    0.7609 C   0  0  0  0  0  0  0  0  0  0  0  0
   -2.9619    3.5413   -0.4956 C   0  0  0  0  0  0  0  0  0  0  0  0
   -1.8257    1.4416   -0.0082 C   0  0  0  0  0  0  0  0  0  0  0  0
    0.4733   -0.0048    1.1157 C   0  0  0  0  0  0  0  0  0  0  0  0
   -0.9100   -0.6889    1.0401 C   0  0  0  0  0  0  0  0  0  0  0  0
   -1.6661   -0.0867   -0.1908 C   0  0  0  0  0  0  0  0  0  0  0  0
    1.2672   -0.3034   -0.1021 N   0  0  0  0  0  0  0  0  0  0  0  0
   -3.9555    4.2492   -1.1061 O   0  0  0  0  0  0  0  0  0  0  0  0
   -3.4078   -4.1586   -1.2081 H   0  0  0  0  0  0  0  0  0  0  0  0
   -4.0006   -2.6573   -2.1124 H   0  0  0  0  0  0  0  0  0  0  0  0
   -0.2233   -3.9158    2.2781 H   0  0  0  0  0  0  0  0  0  0  0  0
    0.9096   -2.5725    2.2936 H   0  0  0  0  0  0  0  0  0  0  0  0
   -0.6220   -2.4449    3.1814 H   0  0  0  0  0  0  0  0  0  0  0  0
    4.9855    1.7285   -1.1974 H   0  0  0  0  0  0  0  0  0  0  0  0
    6.0388    0.8037   -2.2959 H   0  0  0  0  0  0  0  0  0  0  0  0
    4.1151   -0.5359   -3.1430 H   0  0  0  0  0  0  0  0  0  0  0  0
    3.1656    0.8910   -2.6664 H   0  0  0  0  0  0  0  0  0  0  0  0
    5.7036   -1.2873   -0.9882 H   0  0  0  0  0  0  0  0  0  0  0  0
    5.3829   -0.1771    0.3629 H   0  0  0  0  0  0  0  0  0  0  0  0
   -0.3101    4.1152    1.5144 H   0  0  0  0  0  0  0  0  0  0  0  0
   -2.1553    5.3185    0.3988 H   0  0  0  0  0  0  0  0  0  0  0  0
   -1.2798    0.1856   -2.3322 H   0  0  0  0  0  0  0  0  0  0  0  0
   -0.7904   -1.3805   -1.7265 H   0  0  0  0  0  0  0  0  0  0  0  0
    0.6677    1.2709   -1.3991 H   0  0  0  0  0  0  0  0  0  0  0  0
    1.1672   -0.2053   -2.2049 H   0  0  0  0  0  0  0  0  0  0  0  0
   -2.1697   -3.9471    0.8325 H   0  0  0  0  0  0  0  0  0  0  0  0
   -2.8269   -2.6335    1.8016 H   0  0  0  0  0  0  0  0  0  0  0  0
    1.1851    2.0577    1.2936 H   0  0  0  0  0  0  0  0  0  0  0  0
    0.0596    1.5533    2.5416 H   0  0  0  0  0  0  0  0  0  0  0  0
   -3.5665    1.6499   -1.2888 H   0  0  0  0  0  0  0  0  0  0  0  0
   -3.7100   -0.4696    0.4864 H   0  0  0  0  0  0  0  0  0  0  0  0
   -3.5401   -0.4830   -1.2630 H   0  0  0  0  0  0  0  0  0  0  0  0
    3.0207   -0.1142    1.0283 H   0  0  0  0  0  0  0  0  0  0  0  0
    2.7537    1.2334   -0.0721 H   0  0  0  0  0  0  0  0  0  0  0  0
   -0.2479   -2.5797    0.1505 H   0  0  0  0  0  0  0  0  0  0  0  0
    3.3060   -1.6219   -1.0941 H   0  0  0  0  0  0  0  0  0  0  0  0
    1.0201   -0.4313    1.9648 H   0  0  0  0  0  0  0  0  0  0  0  0
   -1.4692   -0.4206    1.9510 H   0  0  0  0  0  0  0  0  0  0  0  0
   -4.5150    3.6321   -1.6047 H   0  0  0  0  0  0  0  0  0  0  0  0
  1 15  2  3
  2 16  1  0
  3  4  1  0
  3  5  1  0
  4 17  1  0
  5 17  1  0
  6  7  2  0
  6 18  1  0
  7 19  1  0
  8  9  1  0
  8 23  1  0
  9 24  1  0
 10 15  1  0
 10 16  1  0
 11 18  1  0
 11 21  1  0
 12 19  2  0
 12 20  1  0
 13 15  1  0
 13 23  1  0
 14 17  1  0
 14 24  1  0
 16 22  1  0
 18 20  2  0
 19 25  1  0
 20 23  1  0
 21 22  1  0
 21 24  1  0
 22 23  1  0
  1 26  1  0
  1 27  1  0
  2 28  1  0
  2 29  1  0
  2 30  1  0
  3 31  1  0
  3 32  1  0
  4 33  1  0
  4 34  1  0
  5 35  1  0
  5 36  1  0
  6 37  1  0
  7 38  1  0
  8 39  1  0
  8 40  1  0
  9 41  1  0
  9 42  1  0
 10 43  1  0
 10 44  1  0
 11 45  1  0
 11 46  1  0
 12 47  1  0
 13 48  1  0
 13 49  1  0
 14 50  1  0
 14 51  1  0
 16 52  1  0
 17 53  1  0
 21 54  1  0
 22 55  1  0
 25 56  1  0
M  END
