
     RDKit          3D

 66 69  0  0  0  0  0  0  0  0999 V2000
   -5.4887    0.5705   -2.1142 C   0  0  0  0  0  0  0  0  0  0  0  0
    6.5620   -2.9300    0.6712 C   0  0  0  0  0  0  0  0  0  0  0  0
   -3.1405    4.3029    0.8603 C   0  0  0  0  0  0  0  0  0  0  0  0
   -4.2569   -4.8087   -0.0020 C   0  0  0  0  0  0  0  0  0  0  0  0
   -6.5311    0.1274   -1.0960 C   0  0  0  0  0  0  0  0  0  0  0  0
    6.7975   -2.1371   -0.6114 C   0  0  0  0  0  0  0  0  0  0  0  0
   -2.8265    3.5529   -0.4234 C   0  0  0  0  0  0  0  0  0  0  0  0
   -5.9420   -0.1631    0.2863 C   0  0  0  0  0  0  0  0  0  0  0  0
    1.2768    2.8635    0.5156 C   0  0  0  0  0  0  0  0  0  0  0  0
   -0.0560    3.1069    0.1708 C   0  0  0  0  0  0  0  0  0  0  0  0
    4.5834   -1.1041   -0.8456 C   0  0  0  0  0  0  0  0  0  0  0  0
    6.3597    0.1244    0.2404 C   0  0  0  0  0  0  0  0  0  0  0  0
    3.8213    0.2083   -1.1232 C   0  0  0  0  0  0  0  0  0  0  0  0
    5.6524    1.4588   -0.0632 C   0  0  0  0  0  0  0  0  0  0  0  0
    0.7486    0.5360    0.9156 C   0  0  0  0  0  0  0  0  0  0  0  0
   -4.2288   -3.3369    0.1542 C   0  0  0  0  0  0  0  0  0  0  0  0
    1.6736    1.5782    0.8785 C   0  0  0  0  0  0  0  0  0  0  0  0
   -0.5919    0.7725    0.5629 C   0  0  0  0  0  0  0  0  0  0  0  0
   -1.0047    2.0739    0.1908 C   0  0  0  0  0  0  0  0  0  0  0  0
   -5.0238   -1.3386    0.2735 C   0  0  0  0  0  0  0  0  0  0  0  0
   -3.1500   -2.5062    0.3644 C   0  0  0  0  0  0  0  0  0  0  0  0
   -1.5344   -0.4117    0.5976 C   0  0  0  0  0  0  0  0  0  0  0  0
   -1.7499   -2.7383    0.5002 C   0  0  0  0  0  0  0  0  0  0  0  0
   -5.3885   -2.5952    0.0902 N   0  0  0  0  0  0  0  0  0  0  0  0
   -0.9885   -1.5908    0.5164 N   0  0  0  0  0  0  0  0  0  0  0  0
   -2.8873   -0.1689    0.7197 N   0  0  0  0  0  0  0  0  0  0  0  0
    6.0398   -0.8919   -0.7776 N   0  0  0  0  0  0  0  0  0  0  0  0
    4.1662    1.2981   -0.1540 N   0  0  0  0  0  0  0  0  0  0  0  0
   -3.6620   -1.2535    0.4471 N   0  0  0  0  0  0  0  0  0  0  0  0
   -1.2542   -3.8566    0.5547 O   0  0  0  0  0  0  0  0  0  0  0  0
    3.4588   -0.0325    1.9189 O   0  0  0  0  0  0  0  0  0  0  0  0
    3.7921    2.4558    2.0926 O   0  0  0  0  0  0  0  0  0  0  0  0
   -2.3251    2.2412   -0.1494 O   0  0  0  0  0  0  0  0  0  0  0  0
    3.3639    1.2914    1.3454 S   0  0  0  0  0  6  0  0  0  0  0  0
   -5.9753    0.8365   -3.0588 H   0  0  0  0  0  0  0  0  0  0  0  0
   -4.9395    1.4458   -1.7571 H   0  0  0  0  0  0  0  0  0  0  0  0
   -4.7685   -0.2264   -2.3246 H   0  0  0  0  0  0  0  0  0  0  0  0
    5.5220   -3.2551    0.7651 H   0  0  0  0  0  0  0  0  0  0  0  0
    6.8305   -2.3540    1.5616 H   0  0  0  0  0  0  0  0  0  0  0  0
    7.1862   -3.8306    0.6638 H   0  0  0  0  0  0  0  0  0  0  0  0
   -3.7786    3.6985    1.5131 H   0  0  0  0  0  0  0  0  0  0  0  0
   -2.2324    4.5298    1.4237 H   0  0  0  0  0  0  0  0  0  0  0  0
   -3.6512    5.2452    0.6405 H   0  0  0  0  0  0  0  0  0  0  0  0
   -3.8838   -5.2989    0.9030 H   0  0  0  0  0  0  0  0  0  0  0  0
   -5.2767   -5.1630   -0.1846 H   0  0  0  0  0  0  0  0  0  0  0  0
   -3.6339   -5.1172   -0.8477 H   0  0  0  0  0  0  0  0  0  0  0  0
   -7.0547   -0.7561   -1.4798 H   0  0  0  0  0  0  0  0  0  0  0  0
   -7.2804    0.9227   -0.9959 H   0  0  0  0  0  0  0  0  0  0  0  0
    6.5877   -2.7911   -1.4673 H   0  0  0  0  0  0  0  0  0  0  0  0
    7.8678   -1.9068   -0.6846 H   0  0  0  0  0  0  0  0  0  0  0  0
   -2.1755    4.1166   -1.0999 H   0  0  0  0  0  0  0  0  0  0  0  0
   -3.7656    3.4105   -0.9686 H   0  0  0  0  0  0  0  0  0  0  0  0
   -5.4444    0.7324    0.6751 H   0  0  0  0  0  0  0  0  0  0  0  0
   -6.7645   -0.3815    0.9786 H   0  0  0  0  0  0  0  0  0  0  0  0
    1.9989    3.6786    0.5004 H   0  0  0  0  0  0  0  0  0  0  0  0
   -0.3118    4.1241   -0.1079 H   0  0  0  0  0  0  0  0  0  0  0  0
    4.2067   -1.5563    0.0765 H   0  0  0  0  0  0  0  0  0  0  0  0
    4.3549   -1.8027   -1.6600 H   0  0  0  0  0  0  0  0  0  0  0  0
    6.0801   -0.2174    1.2435 H   0  0  0  0  0  0  0  0  0  0  0  0
    7.4406    0.3076    0.2476 H   0  0  0  0  0  0  0  0  0  0  0  0
    2.7440    0.0206   -1.1327 H   0  0  0  0  0  0  0  0  0  0  0  0
    4.0684    0.5738   -2.1289 H   0  0  0  0  0  0  0  0  0  0  0  0
    5.9132    2.2064    0.6935 H   0  0  0  0  0  0  0  0  0  0  0  0
    6.0062    1.8637   -1.0206 H   0  0  0  0  0  0  0  0  0  0  0  0
    1.0700   -0.4594    1.2204 H   0  0  0  0  0  0  0  0  0  0  0  0
   -3.2052    0.7048    0.3077 H   0  0  0  0  0  0  0  0  0  0  0  0
  1  5  1  0
  2  6  1  0
  3  7  1  0
  4 16  1  0
  5  8  1  0
  6 27  1  0
  7 33  1  0
  8 20  1  0
  9 10  2  0
  9 17  1  0
 10 19  1  0
 11 13  1  0
 11 27  1  0
 12 14  1  0
 12 27  1  0
 13 28  1  0
 14 28  1  0
 15 17  2  0
 15 18  1  0
 16 21  2  0
 16 24  1  0
 17 34  1  0
 18 19  2  0
 18 22  1  0
 19 33  1  0
 20 24  2  0
 20 29  1  0
 21 23  1  0
 21 29  1  0
 22 25  2  0
 22 26  1  0
 23 25  1  0
 23 30  2  0
 26 29  1  0
 28 34  1  0
 31 34  2  0
 32 34  2  0
  1 35  1  0
  1 36  1  0
  1 37  1  0
  2 38  1  0
  2 39  1  0
  2 40  1  0
  3 41  1  0
  3 42  1  0
  3 43  1  0
  4 44  1  0
  4 45  1  0
  4 46  1  0
  5 47  1  0
  5 48  1  0
  6 49  1  0
  6 50  1  0
  7 51  1  0
  7 52  1  0
  8 53  1  0
  8 54  1  0
  9 55  1  0
 10 56  1  0
 11 57  1  0
 11 58  1  0
 12 59  1  0
 12 60  1  0
 13 61  1  0
 13 62  1  0
 14 63  1  0
 14 64  1  0
 15 65  1  0
 26 66  1  0
M  END
