
     RDKit          3D

 61 63  0  0  0  0  0  0  0  0999 V2000
    7.6245    2.0335   -1.3652 C   0  0  0  0  0  0  0  0  0  0  0  0
   -3.2189    2.0105   -1.0119 C   0  0  0  0  0  0  0  0  0  0  0  0
   -5.0592    2.4301    0.6713 C   0  0  0  0  0  0  0  0  0  0  0  0
   -7.6738   -0.9931   -1.1054 C   0  0  0  0  0  0  0  0  0  0  0  0
    6.1036    2.0204   -1.3753 C   0  0  0  0  0  0  0  0  0  0  0  0
    5.4899    1.1825   -0.2508 C   0  0  0  0  0  0  0  0  0  0  0  0
    0.9863   -3.4180   -1.4926 C   0  0  0  0  0  0  0  0  0  0  0  0
    2.3292   -3.6569   -1.7630 C   0  0  0  0  0  0  0  0  0  0  0  0
    5.7771   -0.3165   -0.3857 C   0  0  0  0  0  0  0  0  0  0  0  0
    0.6136   -2.4796   -0.5252 C   0  0  0  0  0  0  0  0  0  0  0  0
    3.3340   -2.9662   -1.0793 C   0  0  0  0  0  0  0  0  0  0  0  0
    5.1560   -1.1464    0.7412 C   0  0  0  0  0  0  0  0  0  0  0  0
   -4.9555   -0.4907    0.3237 C   0  0  0  0  0  0  0  0  0  0  0  0
   -5.3344   -0.5504   -1.1661 C   0  0  0  0  0  0  0  0  0  0  0  0
   -3.3211   -0.0680    2.0436 C   0  0  0  0  0  0  0  0  0  0  0  0
    2.8845   -0.4502    1.5089 C   0  0  0  0  0  0  0  0  0  0  0  0
   -1.3198    1.1060    3.1673 C   0  0  0  0  0  0  0  0  0  0  0  0
   -3.7344    1.7091    0.4001 C   0  0  0  0  0  0  0  0  0  0  0  0
   -1.8565    0.2022    2.2687 C   0  0  0  0  0  0  0  0  0  0  0  0
    1.6056   -1.7685    0.1840 C   0  0  0  0  0  0  0  0  0  0  0  0
    1.5800   -0.7745    1.2054 C   0  0  0  0  0  0  0  0  0  0  0  0
    2.9510   -2.0237   -0.1100 C   0  0  0  0  0  0  0  0  0  0  0  0
    0.3074   -0.1450    1.8808 C   0  0  0  0  0  0  0  0  0  0  0  0
   -0.9102   -0.5212    1.5532 N   0  0  0  0  0  0  0  0  0  0  0  0
   -3.7249    0.2523    0.6559 N   0  0  0  0  0  0  0  0  0  0  0  0
    3.7037   -1.1995    0.7029 N   0  0  0  0  0  0  0  0  0  0  0  0
   -6.3809   -1.5014   -1.4024 O   0  0  0  0  0  0  0  0  0  0  0  0
    0.3899    1.0712    3.0931 S   0  0  0  0  0  0  0  0  0  0  0  0
    8.0365    1.0461   -1.5922 H   0  0  0  0  0  0  0  0  0  0  0  0
    7.9982    2.7294   -2.1232 H   0  0  0  0  0  0  0  0  0  0  0  0
    8.0087    2.3549   -0.3921 H   0  0  0  0  0  0  0  0  0  0  0  0
   -3.9088    1.6948   -1.7965 H   0  0  0  0  0  0  0  0  0  0  0  0
   -2.2551    1.5195   -1.1882 H   0  0  0  0  0  0  0  0  0  0  0  0
   -3.0607    3.0879   -1.1345 H   0  0  0  0  0  0  0  0  0  0  0  0
   -4.9287    3.5131    0.5667 H   0  0  0  0  0  0  0  0  0  0  0  0
   -5.4081    2.2419    1.6921 H   0  0  0  0  0  0  0  0  0  0  0  0
   -5.8487    2.1319   -0.0245 H   0  0  0  0  0  0  0  0  0  0  0  0
   -7.7679   -0.7545   -0.0428 H   0  0  0  0  0  0  0  0  0  0  0  0
   -8.4085   -1.7647   -1.3503 H   0  0  0  0  0  0  0  0  0  0  0  0
   -7.8875   -0.1072   -1.7112 H   0  0  0  0  0  0  0  0  0  0  0  0
    5.7475    1.6592   -2.3471 H   0  0  0  0  0  0  0  0  0  0  0  0
    5.7476    3.0524   -1.2713 H   0  0  0  0  0  0  0  0  0  0  0  0
    5.8548    1.5444    0.7180 H   0  0  0  0  0  0  0  0  0  0  0  0
    4.4067    1.3501   -0.2648 H   0  0  0  0  0  0  0  0  0  0  0  0
    0.2165   -3.9613   -2.0346 H   0  0  0  0  0  0  0  0  0  0  0  0
    2.6018   -4.3898   -2.5186 H   0  0  0  0  0  0  0  0  0  0  0  0
    5.4200   -0.6707   -1.3598 H   0  0  0  0  0  0  0  0  0  0  0  0
    6.8596   -0.4839   -0.3616 H   0  0  0  0  0  0  0  0  0  0  0  0
   -0.4390   -2.2974   -0.3214 H   0  0  0  0  0  0  0  0  0  0  0  0
    4.3780   -3.1594   -1.3027 H   0  0  0  0  0  0  0  0  0  0  0  0
    5.4541   -0.7540    1.7206 H   0  0  0  0  0  0  0  0  0  0  0  0
    5.5167   -2.1803    0.6906 H   0  0  0  0  0  0  0  0  0  0  0  0
   -4.8306   -1.5386    0.6314 H   0  0  0  0  0  0  0  0  0  0  0  0
   -5.8023   -0.1275    0.9183 H   0  0  0  0  0  0  0  0  0  0  0  0
   -4.4690   -0.8918   -1.7446 H   0  0  0  0  0  0  0  0  0  0  0  0
   -5.6371    0.4226   -1.5616 H   0  0  0  0  0  0  0  0  0  0  0  0
   -3.4614   -1.1372    2.2499 H   0  0  0  0  0  0  0  0  0  0  0  0
   -3.9383    0.4774    2.7681 H   0  0  0  0  0  0  0  0  0  0  0  0
    3.2965    0.2513    2.2220 H   0  0  0  0  0  0  0  0  0  0  0  0
   -1.8383    1.7718    3.8413 H   0  0  0  0  0  0  0  0  0  0  0  0
   -2.9998    2.1906    1.0572 H   0  0  0  0  0  0  0  0  0  0  0  0
  1  5  1  0
  2 18  1  0
  3 18  1  0
  4 27  1  0
  5  6  1  0
  6  9  1  0
  7  8  2  0
  7 10  1  0
  8 11  1  0
  9 12  1  0
 10 20  2  0
 11 22  2  0
 12 26  1  0
 13 14  1  0
 13 25  1  0
 14 27  1  0
 15 19  1  0
 15 25  1  0
 16 21  2  0
 16 26  1  0
 17 19  2  0
 17 28  1  0
 18 25  1  0
 19 24  1  0
 20 21  1  0
 20 22  1  0
 21 23  1  0
 22 26  1  0
 23 24  2  0
 23 28  1  0
  1 29  1  0
  1 30  1  0
  1 31  1  0
  2 32  1  0
  2 33  1  0
  2 34  1  0
  3 35  1  0
  3 36  1  0
  3 37  1  0
  4 38  1  0
  4 39  1  0
  4 40  1  0
  5 41  1  0
  5 42  1  0
  6 43  1  0
  6 44  1  0
  7 45  1  0
  8 46  1  0
  9 47  1  0
  9 48  1  0
 10 49  1  0
 11 50  1  0
 12 51  1  0
 12 52  1  0
 13 53  1  0
 13 54  1  0
 14 55  1  0
 14 56  1  0
 15 57  1  0
 15 58  1  0
 16 59  1  0
 17 60  1  0
 18 61  1  0
M  END
