
     RDKit          3D

 66 65  0  0  0  0  0  0  0  0999 V2000
    9.1648   -1.2724    1.9759 C   0  0  0  0  0  0  0  0  0  0  0  0
    9.5878   -1.1824    0.5178 C   0  0  0  0  0  0  0  0  0  0  0  0
    8.5916   -1.8256   -0.4502 C   0  0  0  0  0  0  0  0  0  0  0  0
    7.1702   -1.2539   -0.4210 C   0  0  0  0  0  0  0  0  0  0  0  0
    7.1036    0.2312   -0.7852 C   0  0  0  0  0  0  0  0  0  0  0  0
    5.6783    0.7071   -0.8469 C   0  0  0  0  0  0  0  0  0  0  0  0
    5.1757    1.6756   -0.0616 C   0  0  0  0  0  0  0  0  0  0  0  0
    3.7696    2.2184   -0.0499 C   0  0  0  0  0  0  0  0  0  0  0  0
    2.7852    1.4523   -0.8863 C   0  0  0  0  0  0  0  0  0  0  0  0
    2.1487    1.9538   -1.9580 C   0  0  0  0  0  0  0  0  0  0  0  0
    1.1651    1.1794   -2.7853 C   0  0  0  0  0  0  0  0  0  0  0  0
   -0.2053    1.7875   -2.7142 C   0  0  0  0  0  0  0  0  0  0  0  0
   -1.2479    1.3663   -1.9774 C   0  0  0  0  0  0  0  0  0  0  0  0
   -1.2860    0.2073   -1.0228 C   0  0  0  0  0  0  0  0  0  0  0  0
   -1.5459    0.6809    0.3793 C   0  0  0  0  0  0  0  0  0  0  0  0
   -2.6342    0.4579    1.1353 C   0  0  0  0  0  0  0  0  0  0  0  0
   -3.8790   -0.2922    0.7458 C   0  0  0  0  0  0  0  0  0  0  0  0
   -3.9660   -1.6249    1.4927 C   0  0  0  0  0  0  0  0  0  0  0  0
   -5.1010   -2.5417    1.0191 C   0  0  0  0  0  0  0  0  0  0  0  0
   -6.5010   -1.9782    1.2488 C   0  0  0  0  0  0  0  0  0  0  0  0
   -8.0357    0.7476    1.4734 C   0  0  0  0  0  0  0  0  0  0  0  0
   -8.4970    0.1764   -0.9539 C   0  0  0  0  0  0  0  0  0  0  0  0
   -8.0655   -0.3679    0.4201 C   0  0  0  0  0  0  0  0  0  0  0  0
   -9.3532    1.2273    1.7327 O   0  0  0  0  0  0  0  0  0  0  0  0
   -7.6728    1.2625   -1.3805 O   0  0  0  0  0  0  0  0  0  0  0  0
   -6.7716   -0.9764    0.2734 O   0  0  0  0  0  0  0  0  0  0  0  0
    8.2722   -0.6703    2.1719 H   0  0  0  0  0  0  0  0  0  0  0  0
    8.9550   -2.3084    2.2619 H   0  0  0  0  0  0  0  0  0  0  0  0
    9.9647   -0.8975    2.6230 H   0  0  0  0  0  0  0  0  0  0  0  0
   10.5538   -1.6901    0.4036 H   0  0  0  0  0  0  0  0  0  0  0  0
    9.7584   -0.1338    0.2494 H   0  0  0  0  0  0  0  0  0  0  0  0
    8.5345   -2.9001   -0.2355 H   0  0  0  0  0  0  0  0  0  0  0  0
    8.9902   -1.7370   -1.4684 H   0  0  0  0  0  0  0  0  0  0  0  0
    6.5623   -1.8284   -1.1329 H   0  0  0  0  0  0  0  0  0  0  0  0
    6.7198   -1.4197    0.5652 H   0  0  0  0  0  0  0  0  0  0  0  0
    7.6707    0.8249   -0.0596 H   0  0  0  0  0  0  0  0  0  0  0  0
    7.5666    0.3943   -1.7655 H   0  0  0  0  0  0  0  0  0  0  0  0
    5.0486    0.2259   -1.5923 H   0  0  0  0  0  0  0  0  0  0  0  0
    5.8383    2.1518    0.6602 H   0  0  0  0  0  0  0  0  0  0  0  0
    3.4073    2.2082    0.9853 H   0  0  0  0  0  0  0  0  0  0  0  0
    3.8054    3.2706   -0.3574 H   0  0  0  0  0  0  0  0  0  0  0  0
    2.5799    0.4319   -0.5685 H   0  0  0  0  0  0  0  0  0  0  0  0
    2.3493    2.9759   -2.2720 H   0  0  0  0  0  0  0  0  0  0  0  0
    1.1515    0.1233   -2.4972 H   0  0  0  0  0  0  0  0  0  0  0  0
    1.4975    1.1926   -3.8304 H   0  0  0  0  0  0  0  0  0  0  0  0
   -0.3540    2.6663   -3.3405 H   0  0  0  0  0  0  0  0  0  0  0  0
   -2.1817    1.9233   -2.0556 H   0  0  0  0  0  0  0  0  0  0  0  0
   -2.0472   -0.4999   -1.3659 H   0  0  0  0  0  0  0  0  0  0  0  0
   -0.3440   -0.3497   -1.0162 H   0  0  0  0  0  0  0  0  0  0  0  0
   -0.7349    1.2618    0.8191 H   0  0  0  0  0  0  0  0  0  0  0  0
   -2.6421    0.8743    2.1422 H   0  0  0  0  0  0  0  0  0  0  0  0
   -3.9282   -0.4612   -0.3341 H   0  0  0  0  0  0  0  0  0  0  0  0
   -4.7358    0.3414    1.0011 H   0  0  0  0  0  0  0  0  0  0  0  0
   -3.0219   -2.1717    1.3683 H   0  0  0  0  0  0  0  0  0  0  0  0
   -4.0765   -1.4390    2.5688 H   0  0  0  0  0  0  0  0  0  0  0  0
   -5.0152   -3.4879    1.5670 H   0  0  0  0  0  0  0  0  0  0  0  0
   -4.9600   -2.7654   -0.0453 H   0  0  0  0  0  0  0  0  0  0  0  0
   -7.2321   -2.7862    1.1304 H   0  0  0  0  0  0  0  0  0  0  0  0
   -6.5879   -1.5742    2.2623 H   0  0  0  0  0  0  0  0  0  0  0  0
   -7.4032    1.5821    1.1518 H   0  0  0  0  0  0  0  0  0  0  0  0
   -7.6225    0.3845    2.4188 H   0  0  0  0  0  0  0  0  0  0  0  0
   -9.5326    0.5294   -0.9245 H   0  0  0  0  0  0  0  0  0  0  0  0
   -8.4139   -0.6144   -1.7070 H   0  0  0  0  0  0  0  0  0  0  0  0
   -8.7988   -1.1337    0.7048 H   0  0  0  0  0  0  0  0  0  0  0  0
   -9.2521    2.0328    2.2691 H   0  0  0  0  0  0  0  0  0  0  0  0
   -7.9199    1.4575   -2.2999 H   0  0  0  0  0  0  0  0  0  0  0  0
  1  2  1  0
  2  3  1  0
  3  4  1  0
  4  5  1  0
  5  6  1  0
  6  7  2  3
  7  8  1  0
  8  9  1  0
  9 10  2  3
 10 11  1  0
 11 12  1  0
 12 13  2  3
 13 14  1  0
 14 15  1  0
 15 16  2  3
 16 17  1  0
 17 18  1  0
 18 19  1  0
 19 20  1  0
 20 26  1  0
 21 23  1  0
 21 24  1  0
 22 23  1  0
 22 25  1  0
 23 26  1  0
  1 27  1  0
  1 28  1  0
  1 29  1  0
  2 30  1  0
  2 31  1  0
  3 32  1  0
  3 33  1  0
  4 34  1  0
  4 35  1  0
  5 36  1  0
  5 37  1  0
  6 38  1  0
  7 39  1  0
  8 40  1  0
  8 41  1  0
  9 42  1  0
 10 43  1  0
 11 44  1  0
 11 45  1  0
 12 46  1  0
 13 47  1  0
 14 48  1  0
 14 49  1  0
 15 50  1  0
 16 51  1  0
 17 52  1  0
 17 53  1  0
 18 54  1  0
 18 55  1  0
 19 56  1  0
 19 57  1  0
 20 58  1  0
 20 59  1  0
 21 60  1  0
 21 61  1  0
 22 62  1  0
 22 63  1  0
 23 64  1  0
 24 65  1  0
 25 66  1  0
M  END
