
     RDKit          3D

 53 57  0  0  0  0  0  0  0  0999 V2000
    7.7300    1.2755    0.5855 C   0  0  0  0  0  0  0  0  0  0  0  0
   -3.1897   -1.6262   -2.8875 C   0  0  0  0  0  0  0  0  0  0  0  0
    5.7441    0.0987    1.5860 C   0  0  0  0  0  0  0  0  0  0  0  0
    5.4542    1.2838   -0.4901 C   0  0  0  0  0  0  0  0  0  0  0  0
    4.3919   -0.2589    1.5685 C   0  0  0  0  0  0  0  0  0  0  0  0
    4.1012    0.9251   -0.5074 C   0  0  0  0  0  0  0  0  0  0  0  0
   -1.9671    1.8381    1.7585 C   0  0  0  0  0  0  0  0  0  0  0  0
   -2.6623    2.1886   -0.5271 C   0  0  0  0  0  0  0  0  0  0  0  0
   -1.8573    3.2191    1.9384 C   0  0  0  0  0  0  0  0  0  0  0  0
   -2.5549    3.5700   -0.3467 C   0  0  0  0  0  0  0  0  0  0  0  0
   -3.3807   -3.0847    0.4776 C   0  0  0  0  0  0  0  0  0  0  0  0
   -1.8819   -3.1824    0.1665 C   0  0  0  0  0  0  0  0  0  0  0  0
   -3.8813   -0.6573   -0.0841 C   0  0  0  0  0  0  0  0  0  0  0  0
    1.1919   -0.1111   -0.5475 C   0  0  0  0  0  0  0  0  0  0  0  0
    6.2887    0.8620    0.5495 C   0  0  0  0  0  0  0  0  0  0  0  0
   -2.3762    1.3045    0.5254 C   0  0  0  0  0  0  0  0  0  0  0  0
    3.5516    0.1451    0.5201 C   0  0  0  0  0  0  0  0  0  0  0  0
   -2.1536    4.0792    0.8854 C   0  0  0  0  0  0  0  0  0  0  0  0
   -3.9276   -2.1176   -0.5764 C   0  0  0  0  0  0  0  0  0  0  0  0
   -2.4632   -0.2089    0.3523 C   0  0  0  0  0  0  0  0  0  0  0  0
    2.1360   -0.2377    0.5089 C   0  0  0  0  0  0  0  0  0  0  0  0
   -1.6585   -2.2297   -1.0216 C   0  0  0  0  0  0  0  0  0  0  0  0
    0.0165   -0.6109   -0.0417 C   0  0  0  0  0  0  0  0  0  0  0  0
   -1.3657   -0.7599   -0.6016 C   0  0  0  0  0  0  0  0  0  0  0  0
   -2.0178    5.7803    1.1041 Cl  0  0  0  0  0  0  0  0  0  0  0  0
    1.5436   -0.7930    1.5801 N   0  0  0  0  0  0  0  0  0  0  0  0
   -2.9769   -2.3721   -1.6627 N   0  0  0  0  0  0  0  0  0  0  0  0
    0.2295   -1.0139    1.2363 O   0  0  0  0  0  0  0  0  0  0  0  0
    8.3405    0.5204    1.0918 H   0  0  0  0  0  0  0  0  0  0  0  0
    8.1291    1.3889   -0.4280 H   0  0  0  0  0  0  0  0  0  0  0  0
    7.8330    2.2275    1.1151 H   0  0  0  0  0  0  0  0  0  0  0  0
   -3.1442   -0.5405   -2.7681 H   0  0  0  0  0  0  0  0  0  0  0  0
   -2.4441   -1.9128   -3.6371 H   0  0  0  0  0  0  0  0  0  0  0  0
   -4.1702   -1.8724   -3.3096 H   0  0  0  0  0  0  0  0  0  0  0  0
    6.3662   -0.2254    2.4174 H   0  0  0  0  0  0  0  0  0  0  0  0
    5.8509    1.8981   -1.2957 H   0  0  0  0  0  0  0  0  0  0  0  0
    4.0007   -0.8591    2.3883 H   0  0  0  0  0  0  0  0  0  0  0  0
    3.4897    1.2788   -1.3327 H   0  0  0  0  0  0  0  0  0  0  0  0
   -1.7171    1.1803    2.5896 H   0  0  0  0  0  0  0  0  0  0  0  0
   -2.9689    1.8136   -1.5006 H   0  0  0  0  0  0  0  0  0  0  0  0
   -1.5356    3.6124    2.8989 H   0  0  0  0  0  0  0  0  0  0  0  0
   -2.7828    4.2410   -1.1704 H   0  0  0  0  0  0  0  0  0  0  0  0
   -3.5650   -2.7470    1.5027 H   0  0  0  0  0  0  0  0  0  0  0  0
   -3.8385   -4.0757    0.3686 H   0  0  0  0  0  0  0  0  0  0  0  0
   -1.6451   -4.2129   -0.1286 H   0  0  0  0  0  0  0  0  0  0  0  0
   -1.2755   -2.9555    1.0459 H   0  0  0  0  0  0  0  0  0  0  0  0
   -4.2790   -0.0081   -0.8725 H   0  0  0  0  0  0  0  0  0  0  0  0
   -4.5670   -0.5376    0.7654 H   0  0  0  0  0  0  0  0  0  0  0  0
    1.3428    0.2908   -1.5374 H   0  0  0  0  0  0  0  0  0  0  0  0
   -4.9514   -2.3901   -0.8550 H   0  0  0  0  0  0  0  0  0  0  0  0
   -2.3038   -0.6522    1.3457 H   0  0  0  0  0  0  0  0  0  0  0  0
   -0.8590   -2.6139   -1.6664 H   0  0  0  0  0  0  0  0  0  0  0  0
   -1.3703   -0.1544   -1.5186 H   0  0  0  0  0  0  0  0  0  0  0  0
  1 15  1  0
  2 27  1  0
  3  5  2  0
  3 15  1  0
  4  6  1  0
  4 15  2  0
  5 17  1  0
  6 17  2  0
  7  9  2  0
  7 16  1  0
  8 10  1  0
  8 16  2  0
  9 18  1  0
 10 18  2  0
 11 12  1  0
 11 19  1  0
 12 22  1  0
 13 19  1  0
 13 20  1  0
 14 21  1  0
 14 23  2  0
 16 20  1  0
 17 21  1  0
 18 25  1  0
 19 27  1  0
 20 24  1  0
 21 26  2  0
 22 24  1  0
 22 27  1  0
 23 24  1  0
 23 28  1  0
 26 28  1  0
  1 29  1  0
  1 30  1  0
  1 31  1  0
  2 32  1  0
  2 33  1  0
  2 34  1  0
  3 35  1  0
  4 36  1  0
  5 37  1  0
  6 38  1  0
  7 39  1  0
  8 40  1  0
  9 41  1  0
 10 42  1  0
 11 43  1  0
 11 44  1  0
 12 45  1  0
 12 46  1  0
 13 47  1  0
 13 48  1  0
 14 49  1  0
 19 50  1  0
 20 51  1  0
 22 52  1  0
 24 53  1  0
M  END
