
     RDKit          3D

 55 59  0  0  0  0  0  0  0  0999 V2000
    1.5773    2.4714   -1.1576 C   0  0  0  0  0  0  0  0  0  0  0  0
    2.8638    2.2974    0.8697 C   0  0  0  0  0  0  0  0  0  0  0  0
    6.1886   -1.6680   -0.3757 C   0  0  0  0  0  0  0  0  0  0  0  0
    5.7370   -0.8697   -1.4201 C   0  0  0  0  0  0  0  0  0  0  0  0
    5.3709   -1.8841    0.7292 C   0  0  0  0  0  0  0  0  0  0  0  0
    4.4649   -0.2956   -1.3594 C   0  0  0  0  0  0  0  0  0  0  0  0
    4.0966   -1.3083    0.7904 C   0  0  0  0  0  0  0  0  0  0  0  0
   -6.4000    1.8681   -0.6099 C   0  0  0  0  0  0  0  0  0  0  0  0
   -5.0404    2.1623   -0.7436 C   0  0  0  0  0  0  0  0  0  0  0  0
   -3.1409   -2.3565    0.3753 C   0  0  0  0  0  0  0  0  0  0  0  0
    1.3761   -0.2183    1.0288 C   0  0  0  0  0  0  0  0  0  0  0  0
    1.4195   -0.4662   -1.4642 C   0  0  0  0  0  0  0  0  0  0  0  0
   -0.0988    0.1808    0.9734 C   0  0  0  0  0  0  0  0  0  0  0  0
   -0.0963   -0.2098   -1.5208 C   0  0  0  0  0  0  0  0  0  0  0  0
   -1.7005   -2.5267    0.8812 C   0  0  0  0  0  0  0  0  0  0  0  0
   -5.9043   -0.4392   -0.0212 C   0  0  0  0  0  0  0  0  0  0  0  0
    3.6071   -0.5092   -0.2578 C   0  0  0  0  0  0  0  0  0  0  0  0
   -6.8149    0.5904   -0.2557 C   0  0  0  0  0  0  0  0  0  0  0  0
   -3.3469   -0.9332    0.0069 C   0  0  0  0  0  0  0  0  0  0  0  0
   -4.5300   -0.1667   -0.1492 C   0  0  0  0  0  0  0  0  0  0  0  0
   -4.1288    1.1245   -0.5072 C   0  0  0  0  0  0  0  0  0  0  0  0
   -2.2666   -0.1179   -0.2612 C   0  0  0  0  0  0  0  0  0  0  0  0
    2.1935    0.1631   -0.2497 C   0  0  0  0  0  0  0  0  0  0  0  0
   -0.8151   -0.5103   -0.1972 C   0  0  0  0  0  0  0  0  0  0  0  0
   -8.1263    0.3402   -0.1354 F   0  0  0  0  0  0  0  0  0  0  0  0
   -2.7506    1.1266   -0.5658 N   0  0  0  0  0  0  0  0  0  0  0  0
    2.4425    1.6302   -0.3580 N   0  0  0  0  0  0  0  0  0  0  0  0
   -0.7517   -1.9541   -0.0360 O   0  0  0  0  0  0  0  0  0  0  0  0
    1.9965    3.4813   -1.2463 H   0  0  0  0  0  0  0  0  0  0  0  0
    1.4995    2.1129   -2.1878 H   0  0  0  0  0  0  0  0  0  0  0  0
    0.5782    2.5779   -0.7275 H   0  0  0  0  0  0  0  0  0  0  0  0
    3.6233    1.7238    1.4111 H   0  0  0  0  0  0  0  0  0  0  0  0
    2.0207    2.4854    1.5431 H   0  0  0  0  0  0  0  0  0  0  0  0
    3.3281    3.2637    0.6406 H   0  0  0  0  0  0  0  0  0  0  0  0
    7.1776   -2.1153   -0.4190 H   0  0  0  0  0  0  0  0  0  0  0  0
    6.3731   -0.6861   -2.2815 H   0  0  0  0  0  0  0  0  0  0  0  0
    5.7243   -2.5011    1.5513 H   0  0  0  0  0  0  0  0  0  0  0  0
    4.1432    0.3420   -2.1806 H   0  0  0  0  0  0  0  0  0  0  0  0
    3.5086   -1.5013    1.6822 H   0  0  0  0  0  0  0  0  0  0  0  0
   -7.1457    2.6383   -0.7831 H   0  0  0  0  0  0  0  0  0  0  0  0
   -4.7107    3.1580   -1.0213 H   0  0  0  0  0  0  0  0  0  0  0  0
   -3.8524   -2.6818    1.1407 H   0  0  0  0  0  0  0  0  0  0  0  0
   -3.2907   -2.9718   -0.5198 H   0  0  0  0  0  0  0  0  0  0  0  0
    1.8256    0.1986    1.9378 H   0  0  0  0  0  0  0  0  0  0  0  0
    1.4070   -1.3070    1.1729 H   0  0  0  0  0  0  0  0  0  0  0  0
    1.8581   -0.1481   -2.4187 H   0  0  0  0  0  0  0  0  0  0  0  0
    1.5610   -1.5573   -1.4400 H   0  0  0  0  0  0  0  0  0  0  0  0
   -0.1960    1.2695    0.9088 H   0  0  0  0  0  0  0  0  0  0  0  0
   -0.5603   -0.1028    1.9270 H   0  0  0  0  0  0  0  0  0  0  0  0
   -0.2939    0.8155   -1.8435 H   0  0  0  0  0  0  0  0  0  0  0  0
   -0.5086   -0.8483   -2.3148 H   0  0  0  0  0  0  0  0  0  0  0  0
   -1.5693   -2.0840    1.8748 H   0  0  0  0  0  0  0  0  0  0  0  0
   -1.4693   -3.5932    0.9700 H   0  0  0  0  0  0  0  0  0  0  0  0
   -6.2616   -1.4254    0.2525 H   0  0  0  0  0  0  0  0  0  0  0  0
   -2.1919    1.9350   -0.8012 H   0  0  0  0  0  0  0  0  0  0  0  0
  1 27  1  0
  2 27  1  0
  3  4  2  0
  3  5  1  0
  4  6  1  0
  5  7  2  0
  6 17  2  0
  7 17  1  0
  8  9  2  0
  8 18  1  0
  9 21  1  0
 10 15  1  0
 10 19  1  0
 11 13  1  0
 11 23  1  0
 12 14  1  0
 12 23  1  0
 13 24  1  0
 14 24  1  0
 15 28  1  0
 16 18  2  0
 16 20  1  0
 17 23  1  0
 18 25  1  0
 19 20  1  0
 19 22  2  0
 20 21  2  0
 21 26  1  0
 22 24  1  0
 22 26  1  0
 23 27  1  0
 24 28  1  0
  1 29  1  0
  1 30  1  0
  1 31  1  0
  2 32  1  0
  2 33  1  0
  2 34  1  0
  3 35  1  0
  4 36  1  0
  5 37  1  0
  6 38  1  0
  7 39  1  0
  8 40  1  0
  9 41  1  0
 10 42  1  0
 10 43  1  0
 11 44  1  0
 11 45  1  0
 12 46  1  0
 12 47  1  0
 13 48  1  0
 13 49  1  0
 14 50  1  0
 14 51  1  0
 15 52  1  0
 15 53  1  0
 16 54  1  0
 26 55  1  0
M  END
