
     RDKit          3D

 57 61  0  0  0  0  0  0  0  0999 V2000
   -7.0281    0.1056    1.4987 C   0  0  0  0  0  0  0  0  0  0  0  0
   -3.3865   -1.9299    2.6588 C   0  0  0  0  0  0  0  0  0  0  0  0
    2.2178    0.8041   -1.0676 C   0  0  0  0  0  0  0  0  0  0  0  0
   -2.3868   -2.1274    1.7050 C   0  0  0  0  0  0  0  0  0  0  0  0
   -4.5116   -1.1266    2.3794 C   0  0  0  0  0  0  0  0  0  0  0  0
    3.7062    1.1233   -0.8933 C   0  0  0  0  0  0  0  0  0  0  0  0
    6.7429   -1.0847    0.0284 C   0  0  0  0  0  0  0  0  0  0  0  0
    6.6235    1.3135   -0.2941 C   0  0  0  0  0  0  0  0  0  0  0  0
    8.0887   -0.9731    0.3841 C   0  0  0  0  0  0  0  0  0  0  0  0
    7.9714    1.4206    0.0626 C   0  0  0  0  0  0  0  0  0  0  0  0
   -1.4234    0.9148   -1.5739 C   0  0  0  0  0  0  0  0  0  0  0  0
    1.5596    0.3956    0.2613 C   0  0  0  0  0  0  0  0  0  0  0  0
   -0.7442    1.1568   -0.2285 C   0  0  0  0  0  0  0  0  0  0  0  0
   -5.8496    0.6981   -0.6117 C   0  0  0  0  0  0  0  0  0  0  0  0
   -4.4611    0.9699   -1.2389 C   0  0  0  0  0  0  0  0  0  0  0  0
   -0.1371   -1.2367   -0.4317 C   0  0  0  0  0  0  0  0  0  0  0  0
    5.9993    0.0578   -0.3104 C   0  0  0  0  0  0  0  0  0  0  0  0
    8.6901    0.2787    0.3985 C   0  0  0  0  0  0  0  0  0  0  0  0
   -2.5323   -1.5125    0.4764 C   0  0  0  0  0  0  0  0  0  0  0  0
   -1.6192   -1.5053   -0.7170 C   0  0  0  0  0  0  0  0  0  0  0  0
   -2.2509   -0.3778   -1.5920 C   0  0  0  0  0  0  0  0  0  0  0  0
   -4.6853   -0.5130    1.1308 C   0  0  0  0  0  0  0  0  0  0  0  0
    4.5618   -0.1166   -0.6845 C   0  0  0  0  0  0  0  0  0  0  0  0
   -3.6604   -0.7391    0.1943 C   0  0  0  0  0  0  0  0  0  0  0  0
    9.9804    0.3885    0.7385 F   0  0  0  0  0  0  0  0  0  0  0  0
   -5.7586    0.3521    0.8280 N   0  0  0  0  0  0  0  0  0  0  0  0
    0.1360    0.0654    0.1874 N   0  0  0  0  0  0  0  0  0  0  0  0
   -3.6421   -0.2271   -1.1295 N   0  0  0  0  0  0  0  0  0  0  0  0
    4.1156   -1.2533   -0.8254 O   0  0  0  0  0  0  0  0  0  0  0  0
   -7.3798   -0.9173    1.3235 H   0  0  0  0  0  0  0  0  0  0  0  0
   -7.7966    0.7917    1.1249 H   0  0  0  0  0  0  0  0  0  0  0  0
   -6.9528    0.2856    2.5759 H   0  0  0  0  0  0  0  0  0  0  0  0
   -3.2886   -2.3856    3.6411 H   0  0  0  0  0  0  0  0  0  0  0  0
    2.0946    0.0195   -1.8220 H   0  0  0  0  0  0  0  0  0  0  0  0
    1.7260    1.7014   -1.4606 H   0  0  0  0  0  0  0  0  0  0  0  0
   -1.5141   -2.7285    1.9352 H   0  0  0  0  0  0  0  0  0  0  0  0
   -5.2343   -0.9793    3.1749 H   0  0  0  0  0  0  0  0  0  0  0  0
    4.0622    1.6177   -1.8046 H   0  0  0  0  0  0  0  0  0  0  0  0
    3.8340    1.8053   -0.0459 H   0  0  0  0  0  0  0  0  0  0  0  0
    6.2753   -2.0683    0.0173 H   0  0  0  0  0  0  0  0  0  0  0  0
    6.0900    2.2213   -0.5597 H   0  0  0  0  0  0  0  0  0  0  0  0
    8.6671   -1.8532    0.6477 H   0  0  0  0  0  0  0  0  0  0  0  0
    8.4666    2.3870    0.0786 H   0  0  0  0  0  0  0  0  0  0  0  0
   -2.0220    1.7867   -1.8557 H   0  0  0  0  0  0  0  0  0  0  0  0
   -0.6425    0.8360   -2.3426 H   0  0  0  0  0  0  0  0  0  0  0  0
    2.0950   -0.4537    0.7025 H   0  0  0  0  0  0  0  0  0  0  0  0
    1.6837    1.2138    0.9829 H   0  0  0  0  0  0  0  0  0  0  0  0
   -0.2101    2.1143   -0.2607 H   0  0  0  0  0  0  0  0  0  0  0  0
   -1.5107    1.2906    0.5441 H   0  0  0  0  0  0  0  0  0  0  0  0
   -6.3488   -0.1177   -1.1517 H   0  0  0  0  0  0  0  0  0  0  0  0
   -6.4674    1.5967   -0.7239 H   0  0  0  0  0  0  0  0  0  0  0  0
   -4.5824    1.2355   -2.2945 H   0  0  0  0  0  0  0  0  0  0  0  0
   -3.9915    1.8188   -0.7260 H   0  0  0  0  0  0  0  0  0  0  0  0
    0.2557   -2.0254    0.2215 H   0  0  0  0  0  0  0  0  0  0  0  0
    0.3971   -1.3258   -1.3853 H   0  0  0  0  0  0  0  0  0  0  0  0
   -1.7300   -2.4700   -1.2291 H   0  0  0  0  0  0  0  0  0  0  0  0
   -2.2920   -0.7187   -2.6348 H   0  0  0  0  0  0  0  0  0  0  0  0
  1 26  1  0
  2  4  2  0
  2  5  1  0
  3  6  1  0
  3 12  1  0
  4 19  1  0
  5 22  2  0
  6 23  1  0
  7  9  2  0
  7 17  1  0
  8 10  1  0
  8 17  2  0
  9 18  1  0
 10 18  2  0
 11 13  1  0
 11 21  1  0
 12 27  1  0
 13 27  1  0
 14 15  1  0
 14 26  1  0
 15 28  1  0
 16 20  1  0
 16 27  1  0
 17 23  1  0
 18 25  1  0
 19 20  1  0
 19 24  2  0
 20 21  1  0
 21 28  1  0
 22 24  1  0
 22 26  1  0
 23 29  2  0
 24 28  1  0
  1 30  1  0
  1 31  1  0
  1 32  1  0
  2 33  1  0
  3 34  1  0
  3 35  1  0
  4 36  1  0
  5 37  1  0
  6 38  1  0
  6 39  1  0
  7 40  1  0
  8 41  1  0
  9 42  1  0
 10 43  1  0
 11 44  1  0
 11 45  1  0
 12 46  1  0
 12 47  1  0
 13 48  1  0
 13 49  1  0
 14 50  1  0
 14 51  1  0
 15 52  1  0
 15 53  1  0
 16 54  1  0
 16 55  1  0
 20 56  1  0
 21 57  1  0
M  END
