
     RDKit          3D

 62 66  0  0  0  0  0  0  0  0999 V2000
    6.0491    2.1356   -1.2501 C   0  0  0  0  0  0  0  0  0  0  0  0
   -5.0470    3.1684    0.0372 C   0  0  0  0  0  0  0  0  0  0  0  0
   -3.2430   -5.1922   -1.5196 C   0  0  0  0  0  0  0  0  0  0  0  0
   -4.0870   -4.2404   -2.0846 C   0  0  0  0  0  0  0  0  0  0  0  0
   -2.1025   -4.8004   -0.8083 C   0  0  0  0  0  0  0  0  0  0  0  0
   -3.8185   -2.8754   -1.9533 C   0  0  0  0  0  0  0  0  0  0  0  0
    0.3876   -3.2973    0.7221 C   0  0  0  0  0  0  0  0  0  0  0  0
    3.5311    1.0821    0.1382 C   0  0  0  0  0  0  0  0  0  0  0  0
    1.7483   -2.6350    0.4693 C   0  0  0  0  0  0  0  0  0  0  0  0
    4.1695    2.4729    0.1744 C   0  0  0  0  0  0  0  0  0  0  0  0
   -2.8878    3.3084   -0.9069 C   0  0  0  0  0  0  0  0  0  0  0  0
   -1.4036    3.4097   -0.5549 C   0  0  0  0  0  0  0  0  0  0  0  0
    1.6800    1.4528    1.8846 C   0  0  0  0  0  0  0  0  0  0  0  0
   -0.4724    0.1113    1.8028 C   0  0  0  0  0  0  0  0  0  0  0  0
    1.7037   -1.0006    2.3254 C   0  0  0  0  0  0  0  0  0  0  0  0
    0.8889    0.2918    2.5140 C   0  0  0  0  0  0  0  0  0  0  0  0
    2.0104    1.1224    0.4094 C   0  0  0  0  0  0  0  0  0  0  0  0
   -1.8072   -3.4280   -0.6636 C   0  0  0  0  0  0  0  0  0  0  0  0
   -0.7541   -2.6908   -0.0259 C   0  0  0  0  0  0  0  0  0  0  0  0
   -2.6753   -2.5050   -1.2346 C   0  0  0  0  0  0  0  0  0  0  0  0
   -1.0168   -1.3374   -0.2072 C   0  0  0  0  0  0  0  0  0  0  0  0
    1.2968   -0.2239    0.0320 C   0  0  0  0  0  0  0  0  0  0  0  0
   -0.7308    1.1251   -0.5830 C   0  0  0  0  0  0  0  0  0  0  0  0
   -0.2536   -0.0860    0.2722 C   0  0  0  0  0  0  0  0  0  0  0  0
   -2.1769   -1.2588   -0.9520 N   0  0  0  0  0  0  0  0  0  0  0  0
    1.9336   -1.2486    0.8964 N   0  0  0  0  0  0  0  0  0  0  0  0
   -0.8876    1.0937   -1.8009 O   0  0  0  0  0  0  0  0  0  0  0  0
    5.5917    2.4092    0.0669 O   0  0  0  0  0  0  0  0  0  0  0  0
   -3.6535    3.2634    0.3011 O   0  0  0  0  0  0  0  0  0  0  0  0
   -0.9458    2.2444    0.1581 O   0  0  0  0  0  0  0  0  0  0  0  0
    5.7797    1.1213   -1.5553 H   0  0  0  0  0  0  0  0  0  0  0  0
    5.6477    2.8651   -1.9599 H   0  0  0  0  0  0  0  0  0  0  0  0
    7.1399    2.2130   -1.2543 H   0  0  0  0  0  0  0  0  0  0  0  0
   -5.2707    2.2483   -0.5116 H   0  0  0  0  0  0  0  0  0  0  0  0
   -5.3898    4.0392   -0.5300 H   0  0  0  0  0  0  0  0  0  0  0  0
   -5.5772    3.1427    0.9931 H   0  0  0  0  0  0  0  0  0  0  0  0
   -3.4681   -6.2497   -1.6319 H   0  0  0  0  0  0  0  0  0  0  0  0
   -4.9671   -4.5620   -2.6363 H   0  0  0  0  0  0  0  0  0  0  0  0
   -1.4529   -5.5542   -0.3746 H   0  0  0  0  0  0  0  0  0  0  0  0
   -4.4760   -2.1341   -2.3947 H   0  0  0  0  0  0  0  0  0  0  0  0
    0.1402   -3.3125    1.7887 H   0  0  0  0  0  0  0  0  0  0  0  0
    0.4878   -4.3511    0.4326 H   0  0  0  0  0  0  0  0  0  0  0  0
    3.7042    0.6365   -0.8485 H   0  0  0  0  0  0  0  0  0  0  0  0
    4.0480    0.4332    0.8556 H   0  0  0  0  0  0  0  0  0  0  0  0
    2.5082   -3.2380    0.9836 H   0  0  0  0  0  0  0  0  0  0  0  0
    1.9987   -2.7162   -0.5969 H   0  0  0  0  0  0  0  0  0  0  0  0
    3.7613    3.1194   -0.6114 H   0  0  0  0  0  0  0  0  0  0  0  0
    3.9564    2.9586    1.1316 H   0  0  0  0  0  0  0  0  0  0  0  0
   -3.0939    2.4039   -1.4883 H   0  0  0  0  0  0  0  0  0  0  0  0
   -3.1852    4.1873   -1.4894 H   0  0  0  0  0  0  0  0  0  0  0  0
   -1.2384    4.2602    0.1151 H   0  0  0  0  0  0  0  0  0  0  0  0
   -0.7908    3.5676   -1.4497 H   0  0  0  0  0  0  0  0  0  0  0  0
    2.5911    1.6275    2.4686 H   0  0  0  0  0  0  0  0  0  0  0  0
    1.0939    2.3776    1.9397 H   0  0  0  0  0  0  0  0  0  0  0  0
   -0.9784   -0.7577    2.2447 H   0  0  0  0  0  0  0  0  0  0  0  0
   -1.1211    0.9619    2.0355 H   0  0  0  0  0  0  0  0  0  0  0  0
    1.1902   -1.8236    2.8313 H   0  0  0  0  0  0  0  0  0  0  0  0
    2.6773   -0.9012    2.8203 H   0  0  0  0  0  0  0  0  0  0  0  0
    0.7271    0.4823    3.5808 H   0  0  0  0  0  0  0  0  0  0  0  0
    1.6175    1.9260   -0.2247 H   0  0  0  0  0  0  0  0  0  0  0  0
    1.5053   -0.4384   -1.0249 H   0  0  0  0  0  0  0  0  0  0  0  0
   -2.5922   -0.4042   -1.2980 H   0  0  0  0  0  0  0  0  0  0  0  0
  1 28  1  0
  2 29  1  0
  3  4  2  0
  3  5  1  0
  4  6  1  0
  5 18  2  0
  6 20  2  0
  7  9  1  0
  7 19  1  0
  8 10  1  0
  8 17  1  0
  9 26  1  0
 10 28  1  0
 11 12  1  0
 11 29  1  0
 12 30  1  0
 13 16  1  0
 13 17  1  0
 14 16  1  0
 14 24  1  0
 15 16  1  0
 15 26  1  0
 17 22  1  0
 18 19  1  0
 18 20  1  0
 19 21  2  0
 20 25  1  0
 21 24  1  0
 21 25  1  0
 22 24  1  0
 22 26  1  0
 23 24  1  0
 23 27  2  0
 23 30  1  0
  1 31  1  0
  1 32  1  0
  1 33  1  0
  2 34  1  0
  2 35  1  0
  2 36  1  0
  3 37  1  0
  4 38  1  0
  5 39  1  0
  6 40  1  0
  7 41  1  0
  7 42  1  0
  8 43  1  0
  8 44  1  0
  9 45  1  0
  9 46  1  0
 10 47  1  0
 10 48  1  0
 11 49  1  0
 11 50  1  0
 12 51  1  0
 12 52  1  0
 13 53  1  0
 13 54  1  0
 14 55  1  0
 14 56  1  0
 15 57  1  0
 15 58  1  0
 16 59  1  0
 17 60  1  0
 22 61  1  0
 25 62  1  0
M  END
