
     RDKit          3D

 63 65  0  0  0  0  0  0  0  0999 V2000
    7.2763    0.1021    2.3159 C   0  0  0  0  0  0  0  0  0  0  0  0
   -2.3603   -2.9873    1.3470 C   0  0  0  0  0  0  0  0  0  0  0  0
   -4.9405   -0.0125    3.1915 C   0  0  0  0  0  0  0  0  0  0  0  0
    5.6501   -2.4998    1.8335 C   0  0  0  0  0  0  0  0  0  0  0  0
    5.9822   -0.2823    3.0289 C   0  0  0  0  0  0  0  0  0  0  0  0
   -3.6794   -2.2269    1.4619 C   0  0  0  0  0  0  0  0  0  0  0  0
   -4.7142   -0.0202    1.6825 C   0  0  0  0  0  0  0  0  0  0  0  0
    2.2275   -0.0566   -1.6104 C   0  0  0  0  0  0  0  0  0  0  0  0
    1.4038   -1.7268   -0.0815 C   0  0  0  0  0  0  0  0  0  0  0  0
   -3.1346    4.0255   -2.6474 C   0  0  0  0  0  0  0  0  0  0  0  0
    3.3731    0.0852   -0.8252 C   0  0  0  0  0  0  0  0  0  0  0  0
    2.5560   -1.5834    0.7012 C   0  0  0  0  0  0  0  0  0  0  0  0
   -2.8636    3.0194   -1.7133 C   0  0  0  0  0  0  0  0  0  0  0  0
   -3.1577   -0.4358   -0.1232 C   0  0  0  0  0  0  0  0  0  0  0  0
   -1.8969    0.4382   -0.1441 C   0  0  0  0  0  0  0  0  0  0  0  0
   -0.0260   -1.1200   -2.0821 C   0  0  0  0  0  0  0  0  0  0  0  0
   -1.7257    2.9331   -4.3265 C   0  0  0  0  0  0  0  0  0  0  0  0
    5.0219   -1.1513    2.1922 C   0  0  0  0  0  0  0  0  0  0  0  0
    1.2189   -0.9549   -1.2369 C   0  0  0  0  0  0  0  0  0  0  0  0
   -2.5750    3.9785   -3.9334 C   0  0  0  0  0  0  0  0  0  0  0  0
    3.5449   -0.6727    0.3354 C   0  0  0  0  0  0  0  0  0  0  0  0
   -1.4540    1.9246   -3.3927 C   0  0  0  0  0  0  0  0  0  0  0  0
   -2.0172    1.9809   -2.1227 C   0  0  0  0  0  0  0  0  0  0  0  0
   -0.7348    0.1690   -2.3795 C   0  0  0  0  0  0  0  0  0  0  0  0
   -0.6760    0.8082   -3.5338 N   0  0  0  0  0  0  0  0  0  0  0  0
   -3.5077   -0.7739    1.2736 N   0  0  0  0  0  0  0  0  0  0  0  0
   -1.5495    0.8449   -1.4950 N   0  0  0  0  0  0  0  0  0  0  0  0
   -2.8896    5.0417   -4.8945 N   0  0  0  0  0  4  0  0  0  0  0  0
   -2.3305    5.0077   -5.9995 O   0  0  0  0  0  1  0  0  0  0  0  0
   -3.7010    5.9113   -4.5445 O   0  0  0  0  0  0  0  0  0  0  0  0
    4.7076   -0.4209    1.0025 O   0  0  0  0  0  0  0  0  0  0  0  0
    7.0784    0.6239    1.3748 H   0  0  0  0  0  0  0  0  0  0  0  0
    7.8915   -0.7786    2.1019 H   0  0  0  0  0  0  0  0  0  0  0  0
    7.8668    0.7737    2.9502 H   0  0  0  0  0  0  0  0  0  0  0  0
   -2.5197   -4.0436    1.5889 H   0  0  0  0  0  0  0  0  0  0  0  0
   -1.6146   -2.5933    2.0444 H   0  0  0  0  0  0  0  0  0  0  0  0
   -1.9431   -2.9422    0.3383 H   0  0  0  0  0  0  0  0  0  0  0  0
   -5.2669   -0.9874    3.5619 H   0  0  0  0  0  0  0  0  0  0  0  0
   -4.0311    0.2855    3.7285 H   0  0  0  0  0  0  0  0  0  0  0  0
   -5.7238    0.7108    3.4471 H   0  0  0  0  0  0  0  0  0  0  0  0
    6.4605   -2.3829    1.1046 H   0  0  0  0  0  0  0  0  0  0  0  0
    6.0390   -3.0056    2.7225 H   0  0  0  0  0  0  0  0  0  0  0  0
    4.9138   -3.1641    1.3652 H   0  0  0  0  0  0  0  0  0  0  0  0
    6.2268   -0.8012    3.9610 H   0  0  0  0  0  0  0  0  0  0  0  0
    5.4655    0.6466    3.3021 H   0  0  0  0  0  0  0  0  0  0  0  0
   -4.4119   -2.6325    0.7532 H   0  0  0  0  0  0  0  0  0  0  0  0
   -4.0590   -2.4369    2.4662 H   0  0  0  0  0  0  0  0  0  0  0  0
   -4.6018    1.0316    1.3825 H   0  0  0  0  0  0  0  0  0  0  0  0
   -5.6083   -0.4090    1.1716 H   0  0  0  0  0  0  0  0  0  0  0  0
    2.1251    0.5448   -2.5122 H   0  0  0  0  0  0  0  0  0  0  0  0
    0.6472   -2.4466    0.2283 H   0  0  0  0  0  0  0  0  0  0  0  0
   -3.7898    4.8443   -2.3519 H   0  0  0  0  0  0  0  0  0  0  0  0
    4.1402    0.7959   -1.1209 H   0  0  0  0  0  0  0  0  0  0  0  0
    2.6436   -2.2032    1.5868 H   0  0  0  0  0  0  0  0  0  0  0  0
   -3.2965    3.0543   -0.7188 H   0  0  0  0  0  0  0  0  0  0  0  0
   -3.9844    0.0808   -0.6338 H   0  0  0  0  0  0  0  0  0  0  0  0
   -2.9837   -1.3322   -0.7325 H   0  0  0  0  0  0  0  0  0  0  0  0
   -1.0438   -0.0939    0.2905 H   0  0  0  0  0  0  0  0  0  0  0  0
   -2.0349    1.3493    0.4508 H   0  0  0  0  0  0  0  0  0  0  0  0
    0.2670   -1.5963   -3.0268 H   0  0  0  0  0  0  0  0  0  0  0  0
   -0.7259   -1.8139   -1.6025 H   0  0  0  0  0  0  0  0  0  0  0  0
   -1.2829    2.8771   -5.3149 H   0  0  0  0  0  0  0  0  0  0  0  0
    4.1289   -1.3003    2.8131 H   0  0  0  0  0  0  0  0  0  0  0  0
  1  5  1  0
  2  6  1  0
  3  7  1  0
  4 18  1  0
  5 18  1  0
  6 26  1  0
  7 26  1  0
  8 11  2  0
  8 19  1  0
  9 12  1  0
  9 19  2  0
 10 13  2  0
 10 20  1  0
 11 21  1  0
 12 21  2  0
 13 23  1  0
 14 15  1  0
 14 26  1  0
 15 27  1  0
 16 19  1  0
 16 24  1  0
 17 20  2  0
 17 22  1  0
 18 31  1  0
 20 28  1  0
 21 31  1  0
 22 23  2  0
 22 25  1  0
 23 27  1  0
 24 25  2  0
 24 27  1  0
 28 29  1  0
 28 30  2  0
  1 32  1  0
  1 33  1  0
  1 34  1  0
  2 35  1  0
  2 36  1  0
  2 37  1  0
  3 38  1  0
  3 39  1  0
  3 40  1  0
  4 41  1  0
  4 42  1  0
  4 43  1  0
  5 44  1  0
  5 45  1  0
  6 46  1  0
  6 47  1  0
  7 48  1  0
  7 49  1  0
  8 50  1  0
  9 51  1  0
 10 52  1  0
 11 53  1  0
 12 54  1  0
 13 55  1  0
 14 56  1  0
 14 57  1  0
 15 58  1  0
 15 59  1  0
 16 60  1  0
 16 61  1  0
 17 62  1  0
 18 63  1  0
M  CHG  2  28   1  29  -1
M  END
