
     RDKit          3D

 67 68  0  0  0  0  0  0  0  0999 V2000
    5.2824    3.5182   -0.2612 C   0  0  0  0  0  0  0  0  0  0  0  0
    3.1302   -3.3714   -1.3649 C   0  0  0  0  0  0  0  0  0  0  0  0
    1.8420   -4.3124    0.5334 C   0  0  0  0  0  0  0  0  0  0  0  0
    4.2478    2.4126   -0.1301 C   0  0  0  0  0  0  0  0  0  0  0  0
    4.9049    1.0642    0.1743 C   0  0  0  0  0  0  0  0  0  0  0  0
    3.8547   -0.0380    0.3387 C   0  0  0  0  0  0  0  0  0  0  0  0
    4.5101   -1.4009    0.5565 C   0  0  0  0  0  0  0  0  0  0  0  0
   -4.2711   -0.2844    1.4708 C   0  0  0  0  0  0  0  0  0  0  0  0
   -3.8968   -0.7204    0.0481 C   0  0  0  0  0  0  0  0  0  0  0  0
   -4.3445    1.3747   -1.4032 C   0  0  0  0  0  0  0  0  0  0  0  0
    0.8665   -1.5132   -1.4118 C   0  0  0  0  0  0  0  0  0  0  0  0
   -3.9028    2.8203   -1.1834 C   0  0  0  0  0  0  0  0  0  0  0  0
   -0.1727   -0.5807   -1.5083 C   0  0  0  0  0  0  0  0  0  0  0  0
    3.5536   -2.5279    0.9857 C   0  0  0  0  0  0  0  0  0  0  0  0
   -5.6600    0.3199    1.6531 C   0  0  0  0  0  0  0  0  0  0  0  0
    0.6224   -1.5103    0.9668 C   0  0  0  0  0  0  0  0  0  0  0  0
   -1.9979    2.1489    0.3668 C   0  0  0  0  0  0  0  0  0  0  0  0
   -3.3156    0.3147   -0.9478 C   0  0  0  0  0  0  0  0  0  0  0  0
    1.3043   -1.9861   -0.1686 C   0  0  0  0  0  0  0  0  0  0  0  0
   -3.2527    3.0103    0.1809 C   0  0  0  0  0  0  0  0  0  0  0  0
   -0.8296   -0.0762   -0.3710 C   0  0  0  0  0  0  0  0  0  0  0  0
   -1.9388    0.9467   -0.5960 C   0  0  0  0  0  0  0  0  0  0  0  0
   -0.4220   -0.5777    0.8648 C   0  0  0  0  0  0  0  0  0  0  0  0
    2.4538   -3.0001   -0.0240 C   0  0  0  0  0  0  0  0  0  0  0  0
   -6.6734   -0.5194    1.1202 O   0  0  0  0  0  0  0  0  0  0  0  0
   -2.9011    4.3800    0.3668 O   0  0  0  0  0  0  0  0  0  0  0  0
   -1.0541   -0.1826    2.0076 O   0  0  0  0  0  0  0  0  0  0  0  0
    4.8019    4.4615   -0.5374 H   0  0  0  0  0  0  0  0  0  0  0  0
    6.0214    3.2734   -1.0310 H   0  0  0  0  0  0  0  0  0  0  0  0
    5.8120    3.6702    0.6851 H   0  0  0  0  0  0  0  0  0  0  0  0
    3.5247   -2.4925   -1.8856 H   0  0  0  0  0  0  0  0  0  0  0  0
    3.9662   -4.0619   -1.2050 H   0  0  0  0  0  0  0  0  0  0  0  0
    2.4289   -3.8708   -2.0430 H   0  0  0  0  0  0  0  0  0  0  0  0
    1.4251   -4.1785    1.5385 H   0  0  0  0  0  0  0  0  0  0  0  0
    1.0350   -4.6793   -0.1122 H   0  0  0  0  0  0  0  0  0  0  0  0
    2.5983   -5.1038    0.6007 H   0  0  0  0  0  0  0  0  0  0  0  0
    3.6778    2.3421   -1.0627 H   0  0  0  0  0  0  0  0  0  0  0  0
    3.5383    2.6709    0.6640 H   0  0  0  0  0  0  0  0  0  0  0  0
    5.5027    1.1424    1.0905 H   0  0  0  0  0  0  0  0  0  0  0  0
    5.5925    0.8013   -0.6381 H   0  0  0  0  0  0  0  0  0  0  0  0
    3.2329   -0.0601   -0.5615 H   0  0  0  0  0  0  0  0  0  0  0  0
    3.2069    0.2078    1.1893 H   0  0  0  0  0  0  0  0  0  0  0  0
    5.0642   -1.6938   -0.3419 H   0  0  0  0  0  0  0  0  0  0  0  0
    5.2647   -1.2988    1.3489 H   0  0  0  0  0  0  0  0  0  0  0  0
   -4.2390   -1.1930    2.0886 H   0  0  0  0  0  0  0  0  0  0  0  0
   -3.5299    0.3927    1.8946 H   0  0  0  0  0  0  0  0  0  0  0  0
   -3.1647   -1.5328    0.1409 H   0  0  0  0  0  0  0  0  0  0  0  0
   -4.7672   -1.1957   -0.4249 H   0  0  0  0  0  0  0  0  0  0  0  0
   -5.3151    1.2092   -0.9281 H   0  0  0  0  0  0  0  0  0  0  0  0
   -4.5368    1.2437   -2.4759 H   0  0  0  0  0  0  0  0  0  0  0  0
    1.3249   -1.8457   -2.3397 H   0  0  0  0  0  0  0  0  0  0  0  0
   -4.7638    3.4915   -1.2927 H   0  0  0  0  0  0  0  0  0  0  0  0
   -3.2005    3.1243   -1.9709 H   0  0  0  0  0  0  0  0  0  0  0  0
   -0.4649   -0.2413   -2.5011 H   0  0  0  0  0  0  0  0  0  0  0  0
    3.1076   -2.2546    1.9484 H   0  0  0  0  0  0  0  0  0  0  0  0
    4.1958   -3.3912    1.2047 H   0  0  0  0  0  0  0  0  0  0  0  0
   -5.8662    0.4586    2.7201 H   0  0  0  0  0  0  0  0  0  0  0  0
   -5.7445    1.3001    1.1820 H   0  0  0  0  0  0  0  0  0  0  0  0
    0.9040   -1.8770    1.9494 H   0  0  0  0  0  0  0  0  0  0  0  0
   -1.0936    2.7570    0.2219 H   0  0  0  0  0  0  0  0  0  0  0  0
   -1.9604    1.8571    1.4174 H   0  0  0  0  0  0  0  0  0  0  0  0
   -3.1308   -0.2929   -1.8492 H   0  0  0  0  0  0  0  0  0  0  0  0
   -3.9756    2.7618    0.9641 H   0  0  0  0  0  0  0  0  0  0  0  0
   -1.6309    1.4337   -1.5368 H   0  0  0  0  0  0  0  0  0  0  0  0
   -6.5268   -1.4146    1.4696 H   0  0  0  0  0  0  0  0  0  0  0  0
   -3.6672    4.9250    0.1240 H   0  0  0  0  0  0  0  0  0  0  0  0
   -0.5875   -0.5549    2.7730 H   0  0  0  0  0  0  0  0  0  0  0  0
  1  4  1  0
  2 24  1  0
  3 24  1  0
  4  5  1  0
  5  6  1  0
  6  7  1  0
  7 14  1  0
  8  9  1  0
  8 15  1  0
  9 18  1  0
 10 12  1  0
 10 18  1  0
 11 13  2  0
 11 19  1  0
 12 20  1  0
 13 21  1  0
 14 24  1  0
 15 25  1  0
 16 19  2  0
 16 23  1  0
 17 20  1  0
 17 22  1  0
 18 22  1  0
 19 24  1  0
 20 26  1  0
 21 22  1  0
 21 23  2  0
 23 27  1  0
  1 28  1  0
  1 29  1  0
  1 30  1  0
  2 31  1  0
  2 32  1  0
  2 33  1  0
  3 34  1  0
  3 35  1  0
  3 36  1  0
  4 37  1  0
  4 38  1  0
  5 39  1  0
  5 40  1  0
  6 41  1  0
  6 42  1  0
  7 43  1  0
  7 44  1  0
  8 45  1  0
  8 46  1  0
  9 47  1  0
  9 48  1  0
 10 49  1  0
 10 50  1  0
 11 51  1  0
 12 52  1  0
 12 53  1  0
 13 54  1  0
 14 55  1  0
 14 56  1  0
 15 57  1  0
 15 58  1  0
 16 59  1  0
 17 60  1  0
 17 61  1  0
 18 62  1  0
 20 63  1  0
 22 64  1  0
 25 65  1  0
 26 66  1  0
 27 67  1  0
M  END
