
     RDKit          3D

 53 56  0  0  0  0  0  0  0  0999 V2000
    7.9255   -0.5210   -0.4032 C   0  0  0  0  0  0  0  0  0  0  0  0
   -7.3120   -1.1736    0.5479 C   0  0  0  0  0  0  0  0  0  0  0  0
    6.4119   -0.5492   -0.5510 C   0  0  0  0  0  0  0  0  0  0  0  0
    5.7322   -0.9632    0.7548 C   0  0  0  0  0  0  0  0  0  0  0  0
   -3.0005    3.4771   -0.3461 C   0  0  0  0  0  0  0  0  0  0  0  0
   -4.3080    3.3436   -0.7853 C   0  0  0  0  0  0  0  0  0  0  0  0
   -0.6455   -1.1123   -2.5816 C   0  0  0  0  0  0  0  0  0  0  0  0
    0.6883   -1.0829   -2.9647 C   0  0  0  0  0  0  0  0  0  0  0  0
    4.2146   -1.1133    0.6254 C   0  0  0  0  0  0  0  0  0  0  0  0
   -2.4177    2.4604    0.4099 C   0  0  0  0  0  0  0  0  0  0  0  0
   -1.0201   -0.7574   -1.2806 C   0  0  0  0  0  0  0  0  0  0  0  0
   -5.0321    2.1962   -0.4617 C   0  0  0  0  0  0  0  0  0  0  0  0
    1.6803   -0.7023   -2.0603 C   0  0  0  0  0  0  0  0  0  0  0  0
   -3.3173   -0.9111    1.8402 C   0  0  0  0  0  0  0  0  0  0  0  0
   -4.6358   -1.0275    1.4127 C   0  0  0  0  0  0  0  0  0  0  0  0
    3.5009    0.2073    0.3392 C   0  0  0  0  0  0  0  0  0  0  0  0
    1.2470    0.2926    1.3997 C   0  0  0  0  0  0  0  0  0  0  0  0
   -3.1268    1.2793    0.7413 C   0  0  0  0  0  0  0  0  0  0  0  0
   -0.0436   -0.3560   -0.3389 C   0  0  0  0  0  0  0  0  0  0  0  0
   -4.4714    1.1489    0.3038 C   0  0  0  0  0  0  0  0  0  0  0  0
   -2.5670    0.2172    1.4916 C   0  0  0  0  0  0  0  0  0  0  0  0
   -0.0705    0.0659    1.0373 C   0  0  0  0  0  0  0  0  0  0  0  0
    1.2956   -0.3449   -0.7562 C   0  0  0  0  0  0  0  0  0  0  0  0
   -5.2169   -0.0141    0.6444 C   0  0  0  0  0  0  0  0  0  0  0  0
   -1.1751    0.2477    1.9788 C   0  0  0  0  0  0  0  0  0  0  0  0
    2.0530    0.0521    0.3241 N   0  0  0  0  0  0  0  0  0  0  0  0
   -1.0005    0.4128    3.1849 O   0  0  0  0  0  0  0  0  0  0  0  0
   -6.5097   -0.0607    0.1754 O   0  0  0  0  0  0  0  0  0  0  0  0
    8.3927   -0.2196   -1.3460 H   0  0  0  0  0  0  0  0  0  0  0  0
    8.3123   -1.5090   -0.1335 H   0  0  0  0  0  0  0  0  0  0  0  0
    8.2307    0.1909    0.3703 H   0  0  0  0  0  0  0  0  0  0  0  0
   -6.9055   -2.1056    0.1420 H   0  0  0  0  0  0  0  0  0  0  0  0
   -7.4299   -1.2305    1.6350 H   0  0  0  0  0  0  0  0  0  0  0  0
   -8.3059   -1.0285    0.1135 H   0  0  0  0  0  0  0  0  0  0  0  0
    6.1419   -1.2490   -1.3502 H   0  0  0  0  0  0  0  0  0  0  0  0
    6.0720    0.4452   -0.8592 H   0  0  0  0  0  0  0  0  0  0  0  0
    6.1443   -1.9253    1.0837 H   0  0  0  0  0  0  0  0  0  0  0  0
    5.9645   -0.2351    1.5415 H   0  0  0  0  0  0  0  0  0  0  0  0
   -2.4303    4.3703   -0.5878 H   0  0  0  0  0  0  0  0  0  0  0  0
   -4.7714    4.1304   -1.3745 H   0  0  0  0  0  0  0  0  0  0  0  0
   -1.4082   -1.4134   -3.2955 H   0  0  0  0  0  0  0  0  0  0  0  0
    0.9646   -1.3624   -3.9786 H   0  0  0  0  0  0  0  0  0  0  0  0
    3.9829   -1.8455   -0.1579 H   0  0  0  0  0  0  0  0  0  0  0  0
    3.8292   -1.5359    1.5623 H   0  0  0  0  0  0  0  0  0  0  0  0
   -1.3914    2.6075    0.7420 H   0  0  0  0  0  0  0  0  0  0  0  0
   -2.0726   -0.8002   -1.0199 H   0  0  0  0  0  0  0  0  0  0  0  0
   -6.0601    2.1226   -0.8135 H   0  0  0  0  0  0  0  0  0  0  0  0
    2.7212   -0.6903   -2.3676 H   0  0  0  0  0  0  0  0  0  0  0  0
   -2.8715   -1.6999    2.4429 H   0  0  0  0  0  0  0  0  0  0  0  0
   -5.1818   -1.9210    1.6965 H   0  0  0  0  0  0  0  0  0  0  0  0
    3.7428    0.9521    1.1066 H   0  0  0  0  0  0  0  0  0  0  0  0
    3.7935    0.6299   -0.6273 H   0  0  0  0  0  0  0  0  0  0  0  0
    1.6575    0.6107    2.3508 H   0  0  0  0  0  0  0  0  0  0  0  0
  1  3  1  0
  2 28  1  0
  3  4  1  0
  4  9  1  0
  5  6  2  0
  5 10  1  0
  6 12  1  0
  7  8  2  0
  7 11  1  0
  8 13  1  0
  9 16  1  0
 10 18  2  0
 11 19  2  0
 12 20  2  0
 13 23  2  0
 14 15  1  0
 14 21  2  0
 15 24  2  0
 16 26  1  0
 17 22  2  0
 17 26  1  0
 18 20  1  0
 18 21  1  0
 19 22  1  0
 19 23  1  0
 20 24  1  0
 21 25  1  0
 22 25  1  0
 23 26  1  0
 24 28  1  0
 25 27  2  0
  1 29  1  0
  1 30  1  0
  1 31  1  0
  2 32  1  0
  2 33  1  0
  2 34  1  0
  3 35  1  0
  3 36  1  0
  4 37  1  0
  4 38  1  0
  5 39  1  0
  6 40  1  0
  7 41  1  0
  8 42  1  0
  9 43  1  0
  9 44  1  0
 10 45  1  0
 11 46  1  0
 12 47  1  0
 13 48  1  0
 14 49  1  0
 15 50  1  0
 16 51  1  0
 16 52  1  0
 17 53  1  0
M  END
