
     RDKit          3D

 57 60  0  0  0  0  0  0  0  0999 V2000
   -3.1312   -1.5960   -2.2558 C   0  0  0  0  0  0  0  0  0  0  0  0
    3.5231    3.9283   -2.1832 C   0  0  0  0  0  0  0  0  0  0  0  0
    2.8826   -4.4323    0.7459 C   0  0  0  0  0  0  0  0  0  0  0  0
    3.0177    2.8215   -2.8620 C   0  0  0  0  0  0  0  0  0  0  0  0
    3.4764    3.9728   -0.7915 C   0  0  0  0  0  0  0  0  0  0  0  0
    2.8075   -3.7582    1.9620 C   0  0  0  0  0  0  0  0  0  0  0  0
    3.0047   -3.7123   -0.4396 C   0  0  0  0  0  0  0  0  0  0  0  0
   -5.7912   -0.0401    1.4162 C   0  0  0  0  0  0  0  0  0  0  0  0
   -6.4062   -0.1328    0.1726 C   0  0  0  0  0  0  0  0  0  0  0  0
    2.4639    1.7567   -2.1496 C   0  0  0  0  0  0  0  0  0  0  0  0
    2.9236    2.9098   -0.0759 C   0  0  0  0  0  0  0  0  0  0  0  0
    2.8464   -2.3625    1.9931 C   0  0  0  0  0  0  0  0  0  0  0  0
    3.0445   -2.3169   -0.4091 C   0  0  0  0  0  0  0  0  0  0  0  0
   -4.3942    0.0252    1.5126 C   0  0  0  0  0  0  0  0  0  0  0  0
   -5.6225   -0.1802   -0.9736 C   0  0  0  0  0  0  0  0  0  0  0  0
   -1.4906    1.0064   -0.4707 C   0  0  0  0  0  0  0  0  0  0  0  0
   -1.4933   -0.0947    1.7650 C   0  0  0  0  0  0  0  0  0  0  0  0
   -0.3684    1.8095    0.2283 C   0  0  0  0  0  0  0  0  0  0  0  0
    0.0327   -0.2033    1.5282 C   0  0  0  0  0  0  0  0  0  0  0  0
    2.4085    1.7868   -0.7456 C   0  0  0  0  0  0  0  0  0  0  0  0
    2.9510   -1.6187    0.8075 C   0  0  0  0  0  0  0  0  0  0  0  0
   -3.5662    0.0044    0.3762 C   0  0  0  0  0  0  0  0  0  0  0  0
   -4.2263   -0.1401   -0.8677 C   0  0  0  0  0  0  0  0  0  0  0  0
    1.8059    0.5974    0.0190 C   0  0  0  0  0  0  0  0  0  0  0  0
    2.9974   -0.0977    0.8072 C   0  0  0  0  0  0  0  0  0  0  0  0
   -2.1765    0.1033    0.4790 N   0  0  0  0  0  0  0  0  0  0  0  0
    0.6757    1.0068    0.9243 N   0  0  0  0  0  0  0  0  0  0  0  0
    3.0673    0.4160    2.1517 O   0  0  0  0  0  0  0  0  0  0  0  0
   -3.5255   -0.2378   -2.0505 O   0  0  0  0  0  0  0  0  0  0  0  0
   -2.5184   -1.9766   -1.4313 H   0  0  0  0  0  0  0  0  0  0  0  0
   -2.5272   -1.6321   -3.1677 H   0  0  0  0  0  0  0  0  0  0  0  0
   -4.0071   -2.2376   -2.4052 H   0  0  0  0  0  0  0  0  0  0  0  0
    3.9550    4.7562   -2.7390 H   0  0  0  0  0  0  0  0  0  0  0  0
    2.8568   -5.5185    0.7238 H   0  0  0  0  0  0  0  0  0  0  0  0
    3.0545    2.7885   -3.9481 H   0  0  0  0  0  0  0  0  0  0  0  0
    3.8719    4.8353   -0.2615 H   0  0  0  0  0  0  0  0  0  0  0  0
    2.7278   -4.3176    2.8906 H   0  0  0  0  0  0  0  0  0  0  0  0
    3.0775   -4.2378   -1.3884 H   0  0  0  0  0  0  0  0  0  0  0  0
   -6.3951   -0.0071    2.3193 H   0  0  0  0  0  0  0  0  0  0  0  0
   -7.4889   -0.1733    0.0971 H   0  0  0  0  0  0  0  0  0  0  0  0
    2.0733    0.9042   -2.7013 H   0  0  0  0  0  0  0  0  0  0  0  0
    2.8940    2.9654    1.0101 H   0  0  0  0  0  0  0  0  0  0  0  0
    2.8009   -1.8573    2.9559 H   0  0  0  0  0  0  0  0  0  0  0  0
    3.1591   -1.7767   -1.3466 H   0  0  0  0  0  0  0  0  0  0  0  0
   -3.9697    0.1227    2.5068 H   0  0  0  0  0  0  0  0  0  0  0  0
   -6.0880   -0.2610   -1.9510 H   0  0  0  0  0  0  0  0  0  0  0  0
   -2.1866    1.7337   -0.9076 H   0  0  0  0  0  0  0  0  0  0  0  0
   -1.0593    0.4126   -1.2849 H   0  0  0  0  0  0  0  0  0  0  0  0
   -1.7057    0.7317    2.4546 H   0  0  0  0  0  0  0  0  0  0  0  0
   -1.8327   -1.0273    2.2319 H   0  0  0  0  0  0  0  0  0  0  0  0
   -0.8358    2.4399    0.9974 H   0  0  0  0  0  0  0  0  0  0  0  0
    0.0513    2.5277   -0.4818 H   0  0  0  0  0  0  0  0  0  0  0  0
    0.1813   -1.0780    0.8823 H   0  0  0  0  0  0  0  0  0  0  0  0
    0.5140   -0.4133    2.4890 H   0  0  0  0  0  0  0  0  0  0  0  0
    1.4116   -0.0939   -0.7382 H   0  0  0  0  0  0  0  0  0  0  0  0
    3.9604    0.1664    0.3502 H   0  0  0  0  0  0  0  0  0  0  0  0
    2.2882    1.0027    2.2291 H   0  0  0  0  0  0  0  0  0  0  0  0
  1 29  1  0
  2  4  2  0
  2  5  1  0
  3  6  2  0
  3  7  1  0
  4 10  1  0
  5 11  2  0
  6 12  1  0
  7 13  2  0
  8  9  2  0
  8 14  1  0
  9 15  1  0
 10 20  2  0
 11 20  1  0
 12 21  2  0
 13 21  1  0
 14 22  2  0
 15 23  2  0
 16 18  1  0
 16 26  1  0
 17 19  1  0
 17 26  1  0
 18 27  1  0
 19 27  1  0
 20 24  1  0
 21 25  1  0
 22 23  1  0
 22 26  1  0
 23 29  1  0
 24 25  1  0
 24 27  1  0
 25 28  1  0
  1 30  1  0
  1 31  1  0
  1 32  1  0
  2 33  1  0
  3 34  1  0
  4 35  1  0
  5 36  1  0
  6 37  1  0
  7 38  1  0
  8 39  1  0
  9 40  1  0
 10 41  1  0
 11 42  1  0
 12 43  1  0
 13 44  1  0
 14 45  1  0
 15 46  1  0
 16 47  1  0
 16 48  1  0
 17 49  1  0
 17 50  1  0
 18 51  1  0
 18 52  1  0
 19 53  1  0
 19 54  1  0
 24 55  1  0
 25 56  1  0
 28 57  1  0
M  END
