
     RDKit          3D

 58 61  0  0  0  0  0  0  0  0999 V2000
   -3.3838   -2.0855   -2.2670 C   0  0  0  0  0  0  0  0  0  0  0  0
   -3.0526   -0.8211   -2.5568 C   0  0  0  0  0  0  0  0  0  0  0  0
    8.3815   -1.2401    1.4121 C   0  0  0  0  0  0  0  0  0  0  0  0
   -8.5320    1.5251    0.8705 C   0  0  0  0  0  0  0  0  0  0  0  0
    7.6529   -0.1857    1.9586 C   0  0  0  0  0  0  0  0  0  0  0  0
    7.7738   -2.1121    0.5103 C   0  0  0  0  0  0  0  0  0  0  0  0
   -7.8614    1.4693    2.0916 C   0  0  0  0  0  0  0  0  0  0  0  0
   -7.8376    1.2985   -0.3159 C   0  0  0  0  0  0  0  0  0  0  0  0
    6.3157   -0.0019    1.6038 C   0  0  0  0  0  0  0  0  0  0  0  0
    6.4363   -1.9310    0.1544 C   0  0  0  0  0  0  0  0  0  0  0  0
   -6.4918    1.1904    2.1322 C   0  0  0  0  0  0  0  0  0  0  0  0
   -6.4702    1.0157   -0.2831 C   0  0  0  0  0  0  0  0  0  0  0  0
    4.2531   -0.6647    0.3005 C   0  0  0  0  0  0  0  0  0  0  0  0
    0.5283    1.4623   -0.7619 C   0  0  0  0  0  0  0  0  0  0  0  0
    0.9126   -1.0646   -0.9437 C   0  0  0  0  0  0  0  0  0  0  0  0
   -2.3075    0.2794    1.5387 C   0  0  0  0  0  0  0  0  0  0  0  0
    4.1323    0.2836   -0.9045 C   0  0  0  0  0  0  0  0  0  0  0  0
    2.0322    1.5048   -0.4993 C   0  0  0  0  0  0  0  0  0  0  0  0
    2.0132   -0.5578   -1.8760 C   0  0  0  0  0  0  0  0  0  0  0  0
   -3.5519    0.5894    2.0330 C   0  0  0  0  0  0  0  0  0  0  0  0
    5.6940   -0.8756    0.7011 C   0  0  0  0  0  0  0  0  0  0  0  0
   -5.7866    0.9616    0.9420 C   0  0  0  0  0  0  0  0  0  0  0  0
   -0.0111    0.0624   -0.4319 C   0  0  0  0  0  0  0  0  0  0  0  0
   -2.4578    0.1820    0.1310 C   0  0  0  0  0  0  0  0  0  0  0  0
   -1.7281   -0.2767   -2.1644 C   0  0  0  0  0  0  0  0  0  0  0  0
   -3.7243    0.4494   -0.2023 N   0  0  0  0  0  0  0  0  0  0  0  0
    2.7686    0.5774   -1.3511 N   0  0  0  0  0  0  0  0  0  0  0  0
   -4.3923    0.6747    0.9517 N   0  0  0  0  0  0  0  0  0  0  0  0
   -1.4370   -0.0973   -0.8079 N   0  0  0  0  0  0  0  0  0  0  0  0
   -0.9173   -0.0967   -3.0742 O   0  0  0  0  0  0  0  0  0  0  0  0
   -2.7153   -2.7381   -1.7160 H   0  0  0  0  0  0  0  0  0  0  0  0
   -4.3410   -2.4870   -2.5821 H   0  0  0  0  0  0  0  0  0  0  0  0
   -3.6878   -0.1643   -3.1374 H   0  0  0  0  0  0  0  0  0  0  0  0
    9.4232   -1.3821    1.6873 H   0  0  0  0  0  0  0  0  0  0  0  0
   -9.5953    1.7465    0.8431 H   0  0  0  0  0  0  0  0  0  0  0  0
    8.1268    0.4953    2.6606 H   0  0  0  0  0  0  0  0  0  0  0  0
    8.3420   -2.9338    0.0818 H   0  0  0  0  0  0  0  0  0  0  0  0
   -8.4068    1.6483    3.0153 H   0  0  0  0  0  0  0  0  0  0  0  0
   -8.3589    1.3403   -1.2690 H   0  0  0  0  0  0  0  0  0  0  0  0
    5.7621    0.8293    2.0339 H   0  0  0  0  0  0  0  0  0  0  0  0
    5.9777   -2.6188   -0.5532 H   0  0  0  0  0  0  0  0  0  0  0  0
   -6.0120    1.1583    3.1053 H   0  0  0  0  0  0  0  0  0  0  0  0
   -5.9511    0.8406   -1.2234 H   0  0  0  0  0  0  0  0  0  0  0  0
    3.8038   -1.6392    0.0714 H   0  0  0  0  0  0  0  0  0  0  0  0
    3.7007   -0.2733    1.1636 H   0  0  0  0  0  0  0  0  0  0  0  0
    0.3217    1.7422   -1.8016 H   0  0  0  0  0  0  0  0  0  0  0  0
    0.0216    2.2100   -0.1392 H   0  0  0  0  0  0  0  0  0  0  0  0
    1.3866   -1.5410   -0.0754 H   0  0  0  0  0  0  0  0  0  0  0  0
    0.3455   -1.8633   -1.4358 H   0  0  0  0  0  0  0  0  0  0  0  0
   -1.4229    0.1303    2.1404 H   0  0  0  0  0  0  0  0  0  0  0  0
    4.6406    1.2321   -0.6816 H   0  0  0  0  0  0  0  0  0  0  0  0
    4.6899   -0.1383   -1.7518 H   0  0  0  0  0  0  0  0  0  0  0  0
    2.1992    1.2888    0.5626 H   0  0  0  0  0  0  0  0  0  0  0  0
    2.3995    2.5220   -0.6777 H   0  0  0  0  0  0  0  0  0  0  0  0
    2.6754   -1.3895   -2.1449 H   0  0  0  0  0  0  0  0  0  0  0  0
    1.5645   -0.2406   -2.8235 H   0  0  0  0  0  0  0  0  0  0  0  0
   -3.8858    0.7474    3.0463 H   0  0  0  0  0  0  0  0  0  0  0  0
    0.0452   -0.0371    0.6574 H   0  0  0  0  0  0  0  0  0  0  0  0
  1  2  2  3
  2 25  1  0
  3  5  2  0
  3  6  1  0
  4  7  2  0
  4  8  1  0
  5  9  1  0
  6 10  2  0
  7 11  1  0
  8 12  2  0
  9 21  2  0
 10 21  1  0
 11 22  2  0
 12 22  1  0
 13 17  1  0
 13 21  1  0
 14 18  1  0
 14 23  1  0
 15 19  1  0
 15 23  1  0
 16 20  2  0
 16 24  1  0
 17 27  1  0
 18 27  1  0
 19 27  1  0
 20 28  1  0
 22 28  1  0
 23 29  1  0
 24 26  2  0
 24 29  1  0
 25 29  1  0
 25 30  2  0
 26 28  1  0
  1 31  1  0
  1 32  1  0
  2 33  1  0
  3 34  1  0
  4 35  1  0
  5 36  1  0
  6 37  1  0
  7 38  1  0
  8 39  1  0
  9 40  1  0
 10 41  1  0
 11 42  1  0
 12 43  1  0
 13 44  1  0
 13 45  1  0
 14 46  1  0
 14 47  1  0
 15 48  1  0
 15 49  1  0
 16 50  1  0
 17 51  1  0
 17 52  1  0
 18 53  1  0
 18 54  1  0
 19 55  1  0
 19 56  1  0
 20 57  1  0
 23 58  1  0
M  END
