
     RDKit          3D

 59 63  0  0  0  0  0  0  0  0999 V2000
   -6.0976    3.1413   -0.3140 C   0  0  0  0  0  0  0  0  0  0  0  0
   -3.2066   -3.4734   -0.3192 C   0  0  0  0  0  0  0  0  0  0  0  0
   -5.8651    2.4102    0.8448 C   0  0  0  0  0  0  0  0  0  0  0  0
   -5.1606    3.1202   -1.3434 C   0  0  0  0  0  0  0  0  0  0  0  0
   -2.9026   -2.9623    0.9405 C   0  0  0  0  0  0  0  0  0  0  0  0
   -3.3005   -2.6181   -1.4100 C   0  0  0  0  0  0  0  0  0  0  0  0
    5.7287   -0.9813    0.8343 C   0  0  0  0  0  0  0  0  0  0  0  0
    5.7796   -0.0318   -0.3490 C   0  0  0  0  0  0  0  0  0  0  0  0
   -4.6918    1.6672    0.9739 C   0  0  0  0  0  0  0  0  0  0  0  0
   -3.9814    2.3778   -1.2137 C   0  0  0  0  0  0  0  0  0  0  0  0
   -2.6711   -1.5949    1.1049 C   0  0  0  0  0  0  0  0  0  0  0  0
   -3.0783   -1.2505   -1.2457 C   0  0  0  0  0  0  0  0  0  0  0  0
    1.8462   -0.2885    1.7826 C   0  0  0  0  0  0  0  0  0  0  0  0
    1.3677   -1.4101    0.8536 C   0  0  0  0  0  0  0  0  0  0  0  0
    4.3558   -1.6288    0.7948 C   0  0  0  0  0  0  0  0  0  0  0  0
    4.4411   -0.1725   -1.0517 C   0  0  0  0  0  0  0  0  0  0  0  0
    2.2790    1.6089    0.1502 C   0  0  0  0  0  0  0  0  0  0  0  0
    1.4765   -0.2542   -1.4239 C   0  0  0  0  0  0  0  0  0  0  0  0
   -3.7129    1.6425   -0.0479 C   0  0  0  0  0  0  0  0  0  0  0  0
   -2.7406   -0.7139    0.0123 C   0  0  0  0  0  0  0  0  0  0  0  0
    2.9102    0.4787    0.9808 C   0  0  0  0  0  0  0  0  0  0  0  0
    2.1568   -1.2318   -0.4497 C   0  0  0  0  0  0  0  0  0  0  0  0
    1.1842    1.1288   -0.8168 C   0  0  0  0  0  0  0  0  0  0  0  0
   -1.2246    1.1364   -0.7719 C   0  0  0  0  0  0  0  0  0  0  0  0
   -2.4466    0.7910    0.1610 C   0  0  0  0  0  0  0  0  0  0  0  0
    3.4708   -0.6109    0.0428 N   0  0  0  0  0  4  0  0  0  0  0  0
   -1.2489    1.3349   -1.9815 O   0  0  0  0  0  0  0  0  0  0  0  0
   -2.0036    1.0540    1.5195 O   0  0  0  0  0  0  0  0  0  0  0  0
   -0.0458    1.0702   -0.0655 O   0  0  0  0  0  0  0  0  0  0  0  0
   -7.0147    3.7110   -0.4216 H   0  0  0  0  0  0  0  0  0  0  0  0
   -3.3884   -4.5362   -0.4489 H   0  0  0  0  0  0  0  0  0  0  0  0
   -6.5991    2.4121    1.6470 H   0  0  0  0  0  0  0  0  0  0  0  0
   -5.3507    3.6759   -2.2599 H   0  0  0  0  0  0  0  0  0  0  0  0
   -2.8447   -3.6285    1.7978 H   0  0  0  0  0  0  0  0  0  0  0  0
   -3.5552   -3.0151   -2.3917 H   0  0  0  0  0  0  0  0  0  0  0  0
    6.5205   -1.7346    0.7938 H   0  0  0  0  0  0  0  0  0  0  0  0
    5.8633   -0.4240    1.7668 H   0  0  0  0  0  0  0  0  0  0  0  0
    5.9264    0.9966    0.0012 H   0  0  0  0  0  0  0  0  0  0  0  0
    6.6058   -0.2676   -1.0252 H   0  0  0  0  0  0  0  0  0  0  0  0
   -4.5481    1.0859    1.8849 H   0  0  0  0  0  0  0  0  0  0  0  0
   -3.3018    2.3837   -2.0642 H   0  0  0  0  0  0  0  0  0  0  0  0
   -2.4408   -1.2235    2.1022 H   0  0  0  0  0  0  0  0  0  0  0  0
   -3.1800   -0.6041   -2.1158 H   0  0  0  0  0  0  0  0  0  0  0  0
    1.0266    0.3527    2.1211 H   0  0  0  0  0  0  0  0  0  0  0  0
    2.2821   -0.7211    2.6906 H   0  0  0  0  0  0  0  0  0  0  0  0
    0.2881   -1.3854    0.6943 H   0  0  0  0  0  0  0  0  0  0  0  0
    1.5919   -2.3827    1.3050 H   0  0  0  0  0  0  0  0  0  0  0  0
    3.9560   -1.8431    1.7892 H   0  0  0  0  0  0  0  0  0  0  0  0
    4.3717   -2.5477    0.1963 H   0  0  0  0  0  0  0  0  0  0  0  0
    4.1104    0.7444   -1.5427 H   0  0  0  0  0  0  0  0  0  0  0  0
    4.4746   -0.9842   -1.7905 H   0  0  0  0  0  0  0  0  0  0  0  0
    3.0617    2.1335   -0.4074 H   0  0  0  0  0  0  0  0  0  0  0  0
    1.8554    2.3508    0.8376 H   0  0  0  0  0  0  0  0  0  0  0  0
    2.1071   -0.1227   -2.3101 H   0  0  0  0  0  0  0  0  0  0  0  0
    0.5511   -0.7179   -1.7788 H   0  0  0  0  0  0  0  0  0  0  0  0
    3.7188    0.8600    1.6129 H   0  0  0  0  0  0  0  0  0  0  0  0
    2.3779   -2.1850   -0.9422 H   0  0  0  0  0  0  0  0  0  0  0  0
    1.0737    1.8774   -1.6111 H   0  0  0  0  0  0  0  0  0  0  0  0
   -2.1576    2.0003    1.6774 H   0  0  0  0  0  0  0  0  0  0  0  0
  1  3  2  0
  1  4  1  0
  2  5  2  0
  2  6  1  0
  3  9  1  0
  4 10  2  0
  5 11  1  0
  6 12  2  0
  7  8  1  0
  7 15  1  0
  8 16  1  0
  9 19  2  0
 10 19  1  0
 11 20  2  0
 12 20  1  0
 13 14  1  0
 13 21  1  0
 14 22  1  0
 15 26  1  0
 16 26  1  0
 17 21  1  0
 17 23  1  0
 18 22  1  0
 18 23  1  0
 19 25  1  0
 20 25  1  0
 21 26  1  0
 22 26  1  0
 23 29  1  0
 24 25  1  0
 24 27  2  0
 24 29  1  0
 25 28  1  0
  1 30  1  0
  2 31  1  0
  3 32  1  0
  4 33  1  0
  5 34  1  0
  6 35  1  0
  7 36  1  0
  7 37  1  0
  8 38  1  0
  8 39  1  0
  9 40  1  0
 10 41  1  0
 11 42  1  0
 12 43  1  0
 13 44  1  0
 13 45  1  0
 14 46  1  0
 14 47  1  0
 15 48  1  0
 15 49  1  0
 16 50  1  0
 16 51  1  0
 17 52  1  0
 17 53  1  0
 18 54  1  0
 18 55  1  0
 21 56  1  0
 22 57  1  0
 23 58  1  0
 28 59  1  0
M  CHG  1  26   1
M  END
