
     RDKit          3D

 65 68  0  0  0  0  0  0  0  0999 V2000
   -6.1089    2.3413    0.0251 C   0  0  0  0  0  0  0  0  0  0  0  0
    4.7086    1.1885    3.2314 C   0  0  0  0  0  0  0  0  0  0  0  0
    4.1045   -0.0623    2.6049 C   0  0  0  0  0  0  0  0  0  0  0  0
    4.4762    2.4166    2.3602 C   0  0  0  0  0  0  0  0  0  0  0  0
   -6.2407   -2.3074    1.9700 C   0  0  0  0  0  0  0  0  0  0  0  0
   -7.1475   -1.2542    1.9636 C   0  0  0  0  0  0  0  0  0  0  0  0
    4.4678   -1.3629   -3.4960 C   0  0  0  0  0  0  0  0  0  0  0  0
    3.9514   -2.6461   -3.5886 C   0  0  0  0  0  0  0  0  0  0  0  0
    4.6430   -0.2934    1.1947 C   0  0  0  0  0  0  0  0  0  0  0  0
    4.9629    2.2032    0.9261 C   0  0  0  0  0  0  0  0  0  0  0  0
   -4.9907   -2.1450    1.3749 C   0  0  0  0  0  0  0  0  0  0  0  0
   -6.8083   -0.0413    1.3586 C   0  0  0  0  0  0  0  0  0  0  0  0
    3.9388   -0.4775   -2.5562 C   0  0  0  0  0  0  0  0  0  0  0  0
    2.9093   -2.9815   -2.7473 C   0  0  0  0  0  0  0  0  0  0  0  0
   -1.9567   -0.8925   -1.8580 C   0  0  0  0  0  0  0  0  0  0  0  0
   -1.9487    1.1287   -0.4678 C   0  0  0  0  0  0  0  0  0  0  0  0
    0.0763    0.4851   -1.7395 C   0  0  0  0  0  0  0  0  0  0  0  0
   -3.3802   -1.0439   -1.2781 C   0  0  0  0  0  0  0  0  0  0  0  0
   -2.4583    0.2075    0.6692 C   0  0  0  0  0  0  0  0  0  0  0  0
    0.8710   -0.1616   -0.5831 C   0  0  0  0  0  0  0  0  0  0  0  0
    4.4251    0.9155    0.2698 C   0  0  0  0  0  0  0  0  0  0  0  0
   -4.6214   -0.9321    0.7679 C   0  0  0  0  0  0  0  0  0  0  0  0
   -5.5553    0.1315    0.7536 C   0  0  0  0  0  0  0  0  0  0  0  0
    2.9152   -0.9014   -1.7126 C   0  0  0  0  0  0  0  0  0  0  0  0
    2.9445    1.0589   -0.1539 C   0  0  0  0  0  0  0  0  0  0  0  0
    2.3794   -2.1377   -1.8343 N   0  0  0  0  0  0  0  0  0  0  0  0
   -1.3906    0.4544   -1.6571 N   0  0  0  0  0  0  0  0  0  0  0  0
   -3.3349   -0.8862    0.1902 N   0  0  0  0  0  0  0  0  0  0  0  0
    2.3248   -0.0280   -0.7599 N   0  0  0  0  0  0  0  0  0  0  0  0
    2.3040    2.0745    0.1337 O   0  0  0  0  0  0  0  0  0  0  0  0
   -5.1622    1.2875    0.1252 O   0  0  0  0  0  0  0  0  0  0  0  0
   -6.9971    2.0252   -0.5316 H   0  0  0  0  0  0  0  0  0  0  0  0
   -6.3753    2.7266    1.0147 H   0  0  0  0  0  0  0  0  0  0  0  0
   -5.6417    3.1583   -0.5335 H   0  0  0  0  0  0  0  0  0  0  0  0
    5.7865    1.0420    3.3755 H   0  0  0  0  0  0  0  0  0  0  0  0
    4.2738    1.3522    4.2243 H   0  0  0  0  0  0  0  0  0  0  0  0
    4.3357   -0.9320    3.2307 H   0  0  0  0  0  0  0  0  0  0  0  0
    3.0118    0.0279    2.5772 H   0  0  0  0  0  0  0  0  0  0  0  0
    4.9956    3.2781    2.7959 H   0  0  0  0  0  0  0  0  0  0  0  0
    3.4087    2.6641    2.3627 H   0  0  0  0  0  0  0  0  0  0  0  0
   -6.5004   -3.2531    2.4374 H   0  0  0  0  0  0  0  0  0  0  0  0
   -8.1226   -1.3747    2.4282 H   0  0  0  0  0  0  0  0  0  0  0  0
    5.2645   -1.0424   -4.1616 H   0  0  0  0  0  0  0  0  0  0  0  0
    4.3372   -3.3586   -4.3089 H   0  0  0  0  0  0  0  0  0  0  0  0
    4.1876   -1.2011    0.7857 H   0  0  0  0  0  0  0  0  0  0  0  0
    5.7204   -0.4952    1.2595 H   0  0  0  0  0  0  0  0  0  0  0  0
    4.7040    3.0801    0.3203 H   0  0  0  0  0  0  0  0  0  0  0  0
    6.0600    2.1515    0.9398 H   0  0  0  0  0  0  0  0  0  0  0  0
   -4.2817   -2.9696    1.3851 H   0  0  0  0  0  0  0  0  0  0  0  0
   -7.5479    0.7515    1.3763 H   0  0  0  0  0  0  0  0  0  0  0  0
    4.2978    0.5449   -2.5504 H   0  0  0  0  0  0  0  0  0  0  0  0
    2.4529   -3.9666   -2.7846 H   0  0  0  0  0  0  0  0  0  0  0  0
   -1.3263   -1.6605   -1.3948 H   0  0  0  0  0  0  0  0  0  0  0  0
   -1.9841   -1.1024   -2.9333 H   0  0  0  0  0  0  0  0  0  0  0  0
   -2.7953    1.7278   -0.8249 H   0  0  0  0  0  0  0  0  0  0  0  0
   -1.2410    1.8592   -0.0566 H   0  0  0  0  0  0  0  0  0  0  0  0
    0.3861    1.5339   -1.8355 H   0  0  0  0  0  0  0  0  0  0  0  0
    0.3757    0.0231   -2.6890 H   0  0  0  0  0  0  0  0  0  0  0  0
   -4.0495   -0.3109   -1.7475 H   0  0  0  0  0  0  0  0  0  0  0  0
   -3.7559   -2.0442   -1.5269 H   0  0  0  0  0  0  0  0  0  0  0  0
   -2.9310    0.8162    1.4502 H   0  0  0  0  0  0  0  0  0  0  0  0
   -1.5939   -0.2688    1.1474 H   0  0  0  0  0  0  0  0  0  0  0  0
    0.6151   -1.2182   -0.4539 H   0  0  0  0  0  0  0  0  0  0  0  0
    0.6032    0.3236    0.3629 H   0  0  0  0  0  0  0  0  0  0  0  0
    5.0289    0.7741   -0.6274 H   0  0  0  0  0  0  0  0  0  0  0  0
  1 31  1  0
  2  3  1  0
  2  4  1  0
  3  9  1  0
  4 10  1  0
  5  6  2  0
  5 11  1  0
  6 12  1  0
  7  8  2  0
  7 13  1  0
  8 14  1  0
  9 21  1  0
 10 21  1  0
 11 22  2  0
 12 23  2  0
 13 24  2  0
 14 26  2  0
 15 18  1  0
 15 27  1  0
 16 19  1  0
 16 27  1  0
 17 20  1  0
 17 27  1  0
 18 28  1  0
 19 28  1  0
 20 29  1  0
 21 25  1  0
 22 23  1  0
 22 28  1  0
 23 31  1  0
 24 26  1  0
 24 29  1  0
 25 29  1  0
 25 30  2  0
  1 32  1  0
  1 33  1  0
  1 34  1  0
  2 35  1  0
  2 36  1  0
  3 37  1  0
  3 38  1  0
  4 39  1  0
  4 40  1  0
  5 41  1  0
  6 42  1  0
  7 43  1  0
  8 44  1  0
  9 45  1  0
  9 46  1  0
 10 47  1  0
 10 48  1  0
 11 49  1  0
 12 50  1  0
 13 51  1  0
 14 52  1  0
 15 53  1  0
 15 54  1  0
 16 55  1  0
 16 56  1  0
 17 57  1  0
 17 58  1  0
 18 59  1  0
 18 60  1  0
 19 61  1  0
 19 62  1  0
 20 63  1  0
 20 64  1  0
 21 65  1  0
M  END
