
     RDKit          3D

 63 65  0  0  0  0  0  0  0  0999 V2000
   -6.1486   -0.0338    2.5241 C   0  0  0  0  0  0  0  0  0  0  0  0
    2.5436   -1.1315   -2.2404 C   0  0  0  0  0  0  0  0  0  0  0  0
    2.1918   -2.6648   -0.2954 C   0  0  0  0  0  0  0  0  0  0  0  0
   -4.0436    1.0227   -3.2413 C   0  0  0  0  0  0  0  0  0  0  0  0
   -4.5936   -0.7452   -1.5888 C   0  0  0  0  0  0  0  0  0  0  0  0
    5.8437   -0.0836    0.5691 C   0  0  0  0  0  0  0  0  0  0  0  0
    7.2850   -0.4499    0.1995 C   0  0  0  0  0  0  0  0  0  0  0  0
    4.8372   -0.8160   -0.3273 C   0  0  0  0  0  0  0  0  0  0  0  0
    8.3234    0.3536    0.9842 C   0  0  0  0  0  0  0  0  0  0  0  0
   -5.8867    1.5091    0.5875 C   0  0  0  0  0  0  0  0  0  0  0  0
   -5.1251    2.1911   -0.5089 C   0  0  0  0  0  0  0  0  0  0  0  0
    3.3943   -0.4489    0.0518 C   0  0  0  0  0  0  0  0  0  0  0  0
    8.3564   -0.0077    2.4074 C   0  0  0  0  0  0  0  0  0  0  0  0
   -3.8604    0.3491    1.4672 C   0  0  0  0  0  0  0  0  0  0  0  0
    0.5984    0.0055    0.8708 C   0  0  0  0  0  0  0  0  0  0  0  0
   -0.1956   -0.5559   -1.3057 C   0  0  0  0  0  0  0  0  0  0  0  0
   -5.3339    0.6639    1.4718 C   0  0  0  0  0  0  0  0  0  0  0  0
    0.8669   -0.5571   -0.3864 C   0  0  0  0  0  0  0  0  0  0  0  0
   -3.0231    1.2322    0.5179 C   0  0  0  0  0  0  0  0  0  0  0  0
   -3.7324    1.6020   -0.7975 C   0  0  0  0  0  0  0  0  0  0  0  0
   -0.6396    0.5864    1.1664 C   0  0  0  0  0  0  0  0  0  0  0  0
   -1.4434    0.0163   -1.0077 C   0  0  0  0  0  0  0  0  0  0  0  0
   -1.6815    0.6107    0.2313 C   0  0  0  0  0  0  0  0  0  0  0  0
    2.2444   -1.1833   -0.7210 C   0  0  0  0  0  0  0  0  0  0  0  0
   -3.6798    0.4593   -1.8490 C   0  0  0  0  0  0  0  0  0  0  0  0
    8.3896   -0.2820    3.5348 N   0  0  0  0  0  0  0  0  0  0  0  0
   -0.7344    1.1271    2.4198 O   0  0  0  0  0  0  0  0  0  0  0  0
   -2.3447   -0.0546   -2.0313 O   0  0  0  0  0  0  0  0  0  0  0  0
   -6.0919   -1.1183    2.3848 H   0  0  0  0  0  0  0  0  0  0  0  0
   -5.7713    0.2110    3.5208 H   0  0  0  0  0  0  0  0  0  0  0  0
   -7.2031    0.2564    2.4893 H   0  0  0  0  0  0  0  0  0  0  0  0
    1.8129   -1.6969   -2.8292 H   0  0  0  0  0  0  0  0  0  0  0  0
    2.5510   -0.0974   -2.6053 H   0  0  0  0  0  0  0  0  0  0  0  0
    3.5104   -1.5844   -2.4821 H   0  0  0  0  0  0  0  0  0  0  0  0
    1.3844   -3.1971   -0.8115 H   0  0  0  0  0  0  0  0  0  0  0  0
    2.0120   -2.7694    0.7809 H   0  0  0  0  0  0  0  0  0  0  0  0
    3.1246   -3.1877   -0.5287 H   0  0  0  0  0  0  0  0  0  0  0  0
   -3.3893    1.8662   -3.4990 H   0  0  0  0  0  0  0  0  0  0  0  0
   -5.0844    1.3547   -3.3088 H   0  0  0  0  0  0  0  0  0  0  0  0
   -3.8776    0.2687   -4.0216 H   0  0  0  0  0  0  0  0  0  0  0  0
   -4.2861   -1.3119   -0.7085 H   0  0  0  0  0  0  0  0  0  0  0  0
   -4.5287   -1.4604   -2.4176 H   0  0  0  0  0  0  0  0  0  0  0  0
   -5.6433   -0.4551   -1.4880 H   0  0  0  0  0  0  0  0  0  0  0  0
    5.6528   -0.3310    1.6212 H   0  0  0  0  0  0  0  0  0  0  0  0
    5.7015    0.9997    0.4597 H   0  0  0  0  0  0  0  0  0  0  0  0
    7.4397   -0.2545   -0.8682 H   0  0  0  0  0  0  0  0  0  0  0  0
    7.4443   -1.5245    0.3543 H   0  0  0  0  0  0  0  0  0  0  0  0
    4.9912   -1.8951   -0.2434 H   0  0  0  0  0  0  0  0  0  0  0  0
    5.0369   -0.5275   -1.3636 H   0  0  0  0  0  0  0  0  0  0  0  0
    8.1267    1.4262    0.8760 H   0  0  0  0  0  0  0  0  0  0  0  0
    9.3131    0.1690    0.5515 H   0  0  0  0  0  0  0  0  0  0  0  0
   -6.9531    1.7229    0.6362 H   0  0  0  0  0  0  0  0  0  0  0  0
   -5.0084    3.2428   -0.2095 H   0  0  0  0  0  0  0  0  0  0  0  0
   -5.7439    2.2042   -1.4118 H   0  0  0  0  0  0  0  0  0  0  0  0
    3.2900   -0.6437    1.1266 H   0  0  0  0  0  0  0  0  0  0  0  0
    3.2757    0.6341   -0.0821 H   0  0  0  0  0  0  0  0  0  0  0  0
   -3.4788    0.4807    2.4887 H   0  0  0  0  0  0  0  0  0  0  0  0
   -3.7192   -0.7159    1.2460 H   0  0  0  0  0  0  0  0  0  0  0  0
    1.3474    0.0104    1.6580 H   0  0  0  0  0  0  0  0  0  0  0  0
   -0.0871   -1.0052   -2.2895 H   0  0  0  0  0  0  0  0  0  0  0  0
   -2.8474    2.1912    1.0291 H   0  0  0  0  0  0  0  0  0  0  0  0
   -3.1377    2.4223   -1.2333 H   0  0  0  0  0  0  0  0  0  0  0  0
   -1.5716    1.6008    2.5196 H   0  0  0  0  0  0  0  0  0  0  0  0
  1 17  1  0
  2 24  1  0
  3 24  1  0
  4 25  1  0
  5 25  1  0
  6  7  1  0
  6  8  1  0
  7  9  1  0
  8 12  1  0
  9 13  1  0
 10 11  1  0
 10 17  2  0
 11 20  1  0
 12 24  1  0
 13 26  3  0
 14 17  1  0
 14 19  1  0
 15 18  2  0
 15 21  1  0
 16 18  1  0
 16 22  2  0
 18 24  1  0
 19 20  1  0
 19 23  1  0
 20 25  1  0
 21 23  2  0
 21 27  1  0
 22 23  1  0
 22 28  1  0
 25 28  1  0
  1 29  1  0
  1 30  1  0
  1 31  1  0
  2 32  1  0
  2 33  1  0
  2 34  1  0
  3 35  1  0
  3 36  1  0
  3 37  1  0
  4 38  1  0
  4 39  1  0
  4 40  1  0
  5 41  1  0
  5 42  1  0
  5 43  1  0
  6 44  1  0
  6 45  1  0
  7 46  1  0
  7 47  1  0
  8 48  1  0
  8 49  1  0
  9 50  1  0
  9 51  1  0
 10 52  1  0
 11 53  1  0
 11 54  1  0
 12 55  1  0
 12 56  1  0
 14 57  1  0
 14 58  1  0
 15 59  1  0
 16 60  1  0
 19 61  1  0
 20 62  1  0
 27 63  1  0
M  END
