
     RDKit          3D

 63 66  0  0  0  0  0  0  0  0999 V2000
    8.1021    0.5332    0.3809 C   0  0  0  0  0  0  0  0  0  0  0  0
   -6.5161    0.0990   -2.1728 C   0  0  0  0  0  0  0  0  0  0  0  0
   -3.8330   -2.3353    0.4886 C   0  0  0  0  0  0  0  0  0  0  0  0
   -3.2669   -1.7453    2.8327 C   0  0  0  0  0  0  0  0  0  0  0  0
    6.7985   -0.0619    0.8962 C   0  0  0  0  0  0  0  0  0  0  0  0
    5.8432    1.0383    1.3624 C   0  0  0  0  0  0  0  0  0  0  0  0
    4.5082    0.5082    1.8934 C   0  0  0  0  0  0  0  0  0  0  0  0
    3.6591   -0.2843    0.8937 C   0  0  0  0  0  0  0  0  0  0  0  0
   -6.0669    0.2281    0.2755 C   0  0  0  0  0  0  0  0  0  0  0  0
   -5.1918    0.3644    1.4852 C   0  0  0  0  0  0  0  0  0  0  0  0
    3.3909    0.4660   -0.4172 C   0  0  0  0  0  0  0  0  0  0  0  0
    2.7358   -0.4246   -2.7750 C   0  0  0  0  0  0  0  0  0  0  0  0
    2.7522   -1.6110   -1.8662 C   0  0  0  0  0  0  0  0  0  0  0  0
   -4.1492    0.4692   -1.3043 C   0  0  0  0  0  0  0  0  0  0  0  0
    0.2519    1.1374   -1.5420 C   0  0  0  0  0  0  0  0  0  0  0  0
    0.1795   -0.7686   -0.0955 C   0  0  0  0  0  0  0  0  0  0  0  0
   -5.6074    0.2611   -0.9866 C   0  0  0  0  0  0  0  0  0  0  0  0
    0.9156    0.0373   -0.9783 C   0  0  0  0  0  0  0  0  0  0  0  0
   -3.2709    0.8462   -0.0910 C   0  0  0  0  0  0  0  0  0  0  0  0
   -3.6822    0.1762    1.2322 C   0  0  0  0  0  0  0  0  0  0  0  0
   -1.0876    1.3972   -1.2493 C   0  0  0  0  0  0  0  0  0  0  0  0
   -1.1641   -0.5071    0.2020 C   0  0  0  0  0  0  0  0  0  0  0  0
   -1.8169    0.5770   -0.3807 C   0  0  0  0  0  0  0  0  0  0  0  0
   -3.1443   -1.2786    1.3636 C   0  0  0  0  0  0  0  0  0  0  0  0
    2.3777   -0.2487   -1.3035 C   0  0  0  0  0  0  0  0  0  0  0  0
   -1.7075    2.4764   -1.8185 O   0  0  0  0  0  0  0  0  0  0  0  0
   -1.7278   -1.3662    1.0992 O   0  0  0  0  0  0  0  0  0  0  0  0
    8.6364    1.0521    1.1826 H   0  0  0  0  0  0  0  0  0  0  0  0
    8.7582   -0.2503   -0.0174 H   0  0  0  0  0  0  0  0  0  0  0  0
    7.9059    1.2537   -0.4243 H   0  0  0  0  0  0  0  0  0  0  0  0
   -6.1942   -0.7515   -2.7834 H   0  0  0  0  0  0  0  0  0  0  0  0
   -7.5559   -0.0791   -1.8771 H   0  0  0  0  0  0  0  0  0  0  0  0
   -6.4939    1.0010   -2.7922 H   0  0  0  0  0  0  0  0  0  0  0  0
   -3.4212   -3.3318    0.6988 H   0  0  0  0  0  0  0  0  0  0  0  0
   -4.9112   -2.3794    0.6652 H   0  0  0  0  0  0  0  0  0  0  0  0
   -3.6493   -2.1747   -0.5767 H   0  0  0  0  0  0  0  0  0  0  0  0
   -4.3050   -1.8353    3.1634 H   0  0  0  0  0  0  0  0  0  0  0  0
   -2.7463   -1.0543    3.5050 H   0  0  0  0  0  0  0  0  0  0  0  0
   -2.7848   -2.7212    2.9741 H   0  0  0  0  0  0  0  0  0  0  0  0
    7.0125   -0.7474    1.7252 H   0  0  0  0  0  0  0  0  0  0  0  0
    6.3437   -0.6505    0.0938 H   0  0  0  0  0  0  0  0  0  0  0  0
    5.6645    1.7472    0.5466 H   0  0  0  0  0  0  0  0  0  0  0  0
    6.3266    1.6138    2.1614 H   0  0  0  0  0  0  0  0  0  0  0  0
    3.9179    1.3611    2.2540 H   0  0  0  0  0  0  0  0  0  0  0  0
    4.6943   -0.1282    2.7681 H   0  0  0  0  0  0  0  0  0  0  0  0
    4.1421   -1.2456    0.6781 H   0  0  0  0  0  0  0  0  0  0  0  0
    2.7110   -0.5258    1.3882 H   0  0  0  0  0  0  0  0  0  0  0  0
   -7.1315    0.1025    0.4610 H   0  0  0  0  0  0  0  0  0  0  0  0
   -5.3554    1.3750    1.8843 H   0  0  0  0  0  0  0  0  0  0  0  0
   -5.5497   -0.3226    2.2576 H   0  0  0  0  0  0  0  0  0  0  0  0
    3.0321    1.4812   -0.1963 H   0  0  0  0  0  0  0  0  0  0  0  0
    4.3332    0.5805   -0.9657 H   0  0  0  0  0  0  0  0  0  0  0  0
    1.9488   -0.3811   -3.5205 H   0  0  0  0  0  0  0  0  0  0  0  0
    3.6854   -0.0429   -3.1313 H   0  0  0  0  0  0  0  0  0  0  0  0
    3.7167   -2.0352   -1.6137 H   0  0  0  0  0  0  0  0  0  0  0  0
    1.9742   -2.3556   -1.9969 H   0  0  0  0  0  0  0  0  0  0  0  0
   -3.7680   -0.4322   -1.8002 H   0  0  0  0  0  0  0  0  0  0  0  0
   -4.0701    1.2687   -2.0540 H   0  0  0  0  0  0  0  0  0  0  0  0
    0.8009    1.7836   -2.2223 H   0  0  0  0  0  0  0  0  0  0  0  0
    0.6614   -1.6244    0.3736 H   0  0  0  0  0  0  0  0  0  0  0  0
   -3.3885    1.9286    0.0731 H   0  0  0  0  0  0  0  0  0  0  0  0
   -3.1677    0.7455    2.0246 H   0  0  0  0  0  0  0  0  0  0  0  0
   -1.0554    2.9788   -2.3315 H   0  0  0  0  0  0  0  0  0  0  0  0
  1  5  1  0
  2 17  1  0
  3 24  1  0
  4 24  1  0
  5  6  1  0
  6  7  1  0
  7  8  1  0
  8 11  1  0
  9 10  1  0
  9 17  2  0
 10 20  1  0
 11 25  1  0
 12 13  1  0
 12 25  1  0
 13 25  1  0
 14 17  1  0
 14 19  1  0
 15 18  2  0
 15 21  1  0
 16 18  1  0
 16 22  2  0
 18 25  1  0
 19 20  1  0
 19 23  1  0
 20 24  1  0
 21 23  2  0
 21 26  1  0
 22 23  1  0
 22 27  1  0
 24 27  1  0
  1 28  1  0
  1 29  1  0
  1 30  1  0
  2 31  1  0
  2 32  1  0
  2 33  1  0
  3 34  1  0
  3 35  1  0
  3 36  1  0
  4 37  1  0
  4 38  1  0
  4 39  1  0
  5 40  1  0
  5 41  1  0
  6 42  1  0
  6 43  1  0
  7 44  1  0
  7 45  1  0
  8 46  1  0
  8 47  1  0
  9 48  1  0
 10 49  1  0
 10 50  1  0
 11 51  1  0
 11 52  1  0
 12 53  1  0
 12 54  1  0
 13 55  1  0
 13 56  1  0
 14 57  1  0
 14 58  1  0
 15 59  1  0
 16 60  1  0
 19 61  1  0
 20 62  1  0
 26 63  1  0
M  END
