
     RDKit          3D

 65 67  0  0  0  0  0  0  0  0999 V2000
    7.1551    1.3599   -2.0048 C   0  0  0  0  0  0  0  0  0  0  0  0
    2.8209   -2.1934    0.4214 C   0  0  0  0  0  0  0  0  0  0  0  0
    2.4279   -0.6240    2.2983 C   0  0  0  0  0  0  0  0  0  0  0  0
   -4.0369    2.6369    1.8052 C   0  0  0  0  0  0  0  0  0  0  0  0
   -3.1032    2.6688   -0.5007 C   0  0  0  0  0  0  0  0  0  0  0  0
    7.2579    1.6257   -0.5120 C   0  0  0  0  0  0  0  0  0  0  0  0
    6.8786    0.4234    0.3566 C   0  0  0  0  0  0  0  0  0  0  0  0
    5.4860   -0.1731    0.1154 C   0  0  0  0  0  0  0  0  0  0  0  0
    4.3472    0.8040    0.4025 C   0  0  0  0  0  0  0  0  0  0  0  0
   -6.4070   -0.4416   -0.4202 C   0  0  0  0  0  0  0  0  0  0  0  0
   -5.6649    0.8140   -0.0593 C   0  0  0  0  0  0  0  0  0  0  0  0
    2.9503    0.3277   -0.0313 C   0  0  0  0  0  0  0  0  0  0  0  0
   -4.2908   -1.7727   -0.5864 C   0  0  0  0  0  0  0  0  0  0  0  0
    0.1597   -1.5278   -0.5966 C   0  0  0  0  0  0  0  0  0  0  0  0
   -0.1103    0.2222    1.0062 C   0  0  0  0  0  0  0  0  0  0  0  0
   -5.7944   -1.6217   -0.6262 C   0  0  0  0  0  0  0  0  0  0  0  0
    0.7316   -0.7263    0.4024 C   0  0  0  0  0  0  0  0  0  0  0  0
   -3.5313   -0.4198   -0.5803 C   0  0  0  0  0  0  0  0  0  0  0  0
   -4.2355    0.5215    0.4237 C   0  0  0  0  0  0  0  0  0  0  0  0
   -1.2011   -1.4248   -0.9196 C   0  0  0  0  0  0  0  0  0  0  0  0
   -1.4645    0.3368    0.6620 C   0  0  0  0  0  0  0  0  0  0  0  0
   -2.0520   -0.5269   -0.2653 C   0  0  0  0  0  0  0  0  0  0  0  0
   -6.5540   -2.8560   -0.9344 C   0  0  0  0  0  0  0  0  0  0  0  0
    2.2357   -0.8040    0.7739 C   0  0  0  0  0  0  0  0  0  0  0  0
   -3.3783    1.7692    0.7173 C   0  0  0  0  0  0  0  0  0  0  0  0
   -1.6981   -2.1969   -1.9324 O   0  0  0  0  0  0  0  0  0  0  0  0
   -6.0705   -3.9595   -1.1120 O   0  0  0  0  0  0  0  0  0  0  0  0
   -7.8840   -2.6702   -0.9983 O   0  0  0  0  0  0  0  0  0  0  0  0
   -2.1235    1.3570    1.2944 O   0  0  0  0  0  0  0  0  0  0  0  0
    6.1161    1.2140   -2.3141 H   0  0  0  0  0  0  0  0  0  0  0  0
    7.5500    2.2132   -2.5668 H   0  0  0  0  0  0  0  0  0  0  0  0
    7.7302    0.4720   -2.2872 H   0  0  0  0  0  0  0  0  0  0  0  0
    2.9327   -2.3277   -0.6607 H   0  0  0  0  0  0  0  0  0  0  0  0
    2.1796   -3.0001    0.7990 H   0  0  0  0  0  0  0  0  0  0  0  0
    3.8051   -2.3573    0.8663 H   0  0  0  0  0  0  0  0  0  0  0  0
    2.2001    0.3955    2.6293 H   0  0  0  0  0  0  0  0  0  0  0  0
    3.4619   -0.8292    2.5989 H   0  0  0  0  0  0  0  0  0  0  0  0
    1.7842   -1.3106    2.8624 H   0  0  0  0  0  0  0  0  0  0  0  0
   -4.2678    2.0398    2.6942 H   0  0  0  0  0  0  0  0  0  0  0  0
   -4.9587    3.1100    1.4543 H   0  0  0  0  0  0  0  0  0  0  0  0
   -3.3549    3.4285    2.1375 H   0  0  0  0  0  0  0  0  0  0  0  0
   -4.0240    3.1021   -0.9040 H   0  0  0  0  0  0  0  0  0  0  0  0
   -2.4339    3.4923   -0.2231 H   0  0  0  0  0  0  0  0  0  0  0  0
   -2.5971    2.1325   -1.3101 H   0  0  0  0  0  0  0  0  0  0  0  0
    8.2920    1.9043   -0.2783 H   0  0  0  0  0  0  0  0  0  0  0  0
    6.6433    2.4936   -0.2515 H   0  0  0  0  0  0  0  0  0  0  0  0
    6.9633    0.7163    1.4107 H   0  0  0  0  0  0  0  0  0  0  0  0
    7.6208   -0.3691    0.1986 H   0  0  0  0  0  0  0  0  0  0  0  0
    5.4115   -0.5525   -0.9099 H   0  0  0  0  0  0  0  0  0  0  0  0
    5.3993   -1.0368    0.7796 H   0  0  0  0  0  0  0  0  0  0  0  0
    4.5343    1.7328   -0.1489 H   0  0  0  0  0  0  0  0  0  0  0  0
    4.3493    1.0832    1.4619 H   0  0  0  0  0  0  0  0  0  0  0  0
   -7.4889   -0.3560   -0.4920 H   0  0  0  0  0  0  0  0  0  0  0  0
   -5.6648    1.4754   -0.9330 H   0  0  0  0  0  0  0  0  0  0  0  0
   -6.2267    1.3206    0.7338 H   0  0  0  0  0  0  0  0  0  0  0  0
    2.3188    1.2280    0.0082 H   0  0  0  0  0  0  0  0  0  0  0  0
    2.9833    0.0539   -1.0959 H   0  0  0  0  0  0  0  0  0  0  0  0
   -3.9894   -2.3593   -1.4602 H   0  0  0  0  0  0  0  0  0  0  0  0
   -4.0200   -2.3562    0.3036 H   0  0  0  0  0  0  0  0  0  0  0  0
    0.7724   -2.2338   -1.1475 H   0  0  0  0  0  0  0  0  0  0  0  0
    0.2792    0.9240    1.7400 H   0  0  0  0  0  0  0  0  0  0  0  0
   -3.6073    0.0179   -1.5869 H   0  0  0  0  0  0  0  0  0  0  0  0
   -4.3150   -0.0295    1.3753 H   0  0  0  0  0  0  0  0  0  0  0  0
   -1.0028   -2.7950   -2.2513 H   0  0  0  0  0  0  0  0  0  0  0  0
   -8.2266   -3.5652   -1.1989 H   0  0  0  0  0  0  0  0  0  0  0  0
  1  6  1  0
  2 24  1  0
  3 24  1  0
  4 25  1  0
  5 25  1  0
  6  7  1  0
  7  8  1  0
  8  9  1  0
  9 12  1  0
 10 11  1  0
 10 16  2  0
 11 19  1  0
 12 24  1  0
 13 16  1  0
 13 18  1  0
 14 17  2  0
 14 20  1  0
 15 17  1  0
 15 21  2  0
 16 23  1  0
 17 24  1  0
 18 19  1  0
 18 22  1  0
 19 25  1  0
 20 22  2  0
 20 26  1  0
 21 22  1  0
 21 29  1  0
 23 27  2  0
 23 28  1  0
 25 29  1  0
  1 30  1  0
  1 31  1  0
  1 32  1  0
  2 33  1  0
  2 34  1  0
  2 35  1  0
  3 36  1  0
  3 37  1  0
  3 38  1  0
  4 39  1  0
  4 40  1  0
  4 41  1  0
  5 42  1  0
  5 43  1  0
  5 44  1  0
  6 45  1  0
  6 46  1  0
  7 47  1  0
  7 48  1  0
  8 49  1  0
  8 50  1  0
  9 51  1  0
  9 52  1  0
 10 53  1  0
 11 54  1  0
 11 55  1  0
 12 56  1  0
 12 57  1  0
 13 58  1  0
 13 59  1  0
 14 60  1  0
 15 61  1  0
 18 62  1  0
 19 63  1  0
 26 64  1  0
 28 65  1  0
M  END
