
     RDKit          3D

 65 67  0  0  0  0  0  0  0  0999 V2000
    8.7103   -0.8080   -1.2640 C   0  0  0  0  0  0  0  0  0  0  0  0
    2.8093    2.4067    0.0208 C   0  0  0  0  0  0  0  0  0  0  0  0
    2.6038    1.0199    2.0634 C   0  0  0  0  0  0  0  0  0  0  0  0
   -3.9378   -1.4275    3.2295 C   0  0  0  0  0  0  0  0  0  0  0  0
   -3.7230   -2.2668    0.9032 C   0  0  0  0  0  0  0  0  0  0  0  0
    7.1969   -0.9759   -1.2750 C   0  0  0  0  0  0  0  0  0  0  0  0
    6.4892    0.3632   -1.4856 C   0  0  0  0  0  0  0  0  0  0  0  0
    4.9610    0.2520   -1.5451 C   0  0  0  0  0  0  0  0  0  0  0  0
    4.3409   -0.2615   -0.2389 C   0  0  0  0  0  0  0  0  0  0  0  0
   -6.3080   -0.2151   -0.1289 C   0  0  0  0  0  0  0  0  0  0  0  0
   -0.0178    1.8515   -0.4846 C   0  0  0  0  0  0  0  0  0  0  0  0
   -1.4128    1.7991   -0.5847 C   0  0  0  0  0  0  0  0  0  0  0  0
   -5.7959    0.1418    1.2341 C   0  0  0  0  0  0  0  0  0  0  0  0
    2.8075   -0.1383   -0.2066 C   0  0  0  0  0  0  0  0  0  0  0  0
   -4.1181    0.2543   -1.2273 C   0  0  0  0  0  0  0  0  0  0  0  0
   -0.0878    0.1243    1.1735 C   0  0  0  0  0  0  0  0  0  0  0  0
   -6.1168   -0.5716   -2.5870 C   0  0  0  0  0  0  0  0  0  0  0  0
   -5.5605   -0.1857   -1.2448 C   0  0  0  0  0  0  0  0  0  0  0  0
    0.6787    1.0306    0.4148 C   0  0  0  0  0  0  0  0  0  0  0  0
   -2.1587    0.9126    0.2029 C   0  0  0  0  0  0  0  0  0  0  0  0
   -3.6605    0.8919    0.1006 C   0  0  0  0  0  0  0  0  0  0  0  0
   -4.2651    0.2563    1.3627 C   0  0  0  0  0  0  0  0  0  0  0  0
   -1.4847    0.0701    1.0784 C   0  0  0  0  0  0  0  0  0  0  0  0
    2.2176    1.0848    0.5633 C   0  0  0  0  0  0  0  0  0  0  0  0
   -3.5141   -1.0356    1.7967 C   0  0  0  0  0  0  0  0  0  0  0  0
   -5.4641   -1.7456   -3.0444 O   0  0  0  0  0  0  0  0  0  0  0  0
   -2.0894   -0.8230    1.9126 O   0  0  0  0  0  0  0  0  0  0  0  0
    9.0246   -0.1377   -0.4561 H   0  0  0  0  0  0  0  0  0  0  0  0
    9.1963   -1.7765   -1.1101 H   0  0  0  0  0  0  0  0  0  0  0  0
    9.0698   -0.3943   -2.2126 H   0  0  0  0  0  0  0  0  0  0  0  0
    2.3196    3.2769    0.4738 H   0  0  0  0  0  0  0  0  0  0  0  0
    3.8791    2.4938    0.2415 H   0  0  0  0  0  0  0  0  0  0  0  0
    2.7000    2.4867   -1.0655 H   0  0  0  0  0  0  0  0  0  0  0  0
    2.0430    1.7601    2.6480 H   0  0  0  0  0  0  0  0  0  0  0  0
    3.6682    1.2275    2.2201 H   0  0  0  0  0  0  0  0  0  0  0  0
    2.4108    0.0331    2.4989 H   0  0  0  0  0  0  0  0  0  0  0  0
   -3.7883   -0.5912    3.9237 H   0  0  0  0  0  0  0  0  0  0  0  0
   -4.9830   -1.7480    3.2918 H   0  0  0  0  0  0  0  0  0  0  0  0
   -3.3148   -2.2468    3.6095 H   0  0  0  0  0  0  0  0  0  0  0  0
   -3.2630   -3.1502    1.3619 H   0  0  0  0  0  0  0  0  0  0  0  0
   -3.2249   -2.1643   -0.0622 H   0  0  0  0  0  0  0  0  0  0  0  0
   -4.7810   -2.4947    0.7481 H   0  0  0  0  0  0  0  0  0  0  0  0
    6.9162   -1.6723   -2.0748 H   0  0  0  0  0  0  0  0  0  0  0  0
    6.8875   -1.4255   -0.3245 H   0  0  0  0  0  0  0  0  0  0  0  0
    6.8386    0.8093   -2.4259 H   0  0  0  0  0  0  0  0  0  0  0  0
    6.7681    1.0588   -0.6842 H   0  0  0  0  0  0  0  0  0  0  0  0
    4.6685   -0.4063   -2.3722 H   0  0  0  0  0  0  0  0  0  0  0  0
    4.5634    1.2429   -1.7856 H   0  0  0  0  0  0  0  0  0  0  0  0
    4.8003    0.2406    0.6177 H   0  0  0  0  0  0  0  0  0  0  0  0
    4.5903   -1.3245   -0.1406 H   0  0  0  0  0  0  0  0  0  0  0  0
   -7.3550   -0.5108   -0.1805 H   0  0  0  0  0  0  0  0  0  0  0  0
    0.5007    2.5619   -1.1236 H   0  0  0  0  0  0  0  0  0  0  0  0
   -1.9162    2.4731   -1.2778 H   0  0  0  0  0  0  0  0  0  0  0  0
   -6.1994   -0.5729    1.9577 H   0  0  0  0  0  0  0  0  0  0  0  0
   -6.2380    1.1131    1.4950 H   0  0  0  0  0  0  0  0  0  0  0  0
    2.4178   -1.0551    0.2587 H   0  0  0  0  0  0  0  0  0  0  0  0
    2.4208   -0.1492   -1.2359 H   0  0  0  0  0  0  0  0  0  0  0  0
   -3.4851   -0.5991   -1.4958 H   0  0  0  0  0  0  0  0  0  0  0  0
   -3.9662    0.9911   -2.0272 H   0  0  0  0  0  0  0  0  0  0  0  0
    0.3950   -0.5717    1.8586 H   0  0  0  0  0  0  0  0  0  0  0  0
   -5.9564    0.2250   -3.3182 H   0  0  0  0  0  0  0  0  0  0  0  0
   -7.1916   -0.7733   -2.5478 H   0  0  0  0  0  0  0  0  0  0  0  0
   -4.0034    1.9386    0.0905 H   0  0  0  0  0  0  0  0  0  0  0  0
   -4.0835    0.9786    2.1769 H   0  0  0  0  0  0  0  0  0  0  0  0
   -5.4289   -2.3577   -2.2911 H   0  0  0  0  0  0  0  0  0  0  0  0
  1  6  1  0
  2 24  1  0
  3 24  1  0
  4 25  1  0
  5 25  1  0
  6  7  1  0
  7  8  1  0
  8  9  1  0
  9 14  1  0
 10 13  1  0
 10 18  2  0
 11 12  1  0
 11 19  2  0
 12 20  2  0
 13 22  1  0
 14 24  1  0
 15 18  1  0
 15 21  1  0
 16 19  1  0
 16 23  2  0
 17 18  1  0
 17 26  1  0
 19 24  1  0
 20 21  1  0
 20 23  1  0
 21 22  1  0
 22 25  1  0
 23 27  1  0
 25 27  1  0
  1 28  1  0
  1 29  1  0
  1 30  1  0
  2 31  1  0
  2 32  1  0
  2 33  1  0
  3 34  1  0
  3 35  1  0
  3 36  1  0
  4 37  1  0
  4 38  1  0
  4 39  1  0
  5 40  1  0
  5 41  1  0
  5 42  1  0
  6 43  1  0
  6 44  1  0
  7 45  1  0
  7 46  1  0
  8 47  1  0
  8 48  1  0
  9 49  1  0
  9 50  1  0
 10 51  1  0
 11 52  1  0
 12 53  1  0
 13 54  1  0
 13 55  1  0
 14 56  1  0
 14 57  1  0
 15 58  1  0
 15 59  1  0
 16 60  1  0
 17 61  1  0
 17 62  1  0
 21 63  1  0
 22 64  1  0
 26 65  1  0
M  END
