
     RDKit          3D

 66 69  0  0  0  0  0  0  0  0999 V2000
    8.3248   -0.7309    0.6903 C   0  0  0  0  0  0  0  0  0  0  0  0
   -4.2383   -1.7396    1.2569 C   0  0  0  0  0  0  0  0  0  0  0  0
    0.6952   -0.1499    1.5912 C   0  0  0  0  0  0  0  0  0  0  0  0
    8.0544   -0.7595   -0.8061 C   0  0  0  0  0  0  0  0  0  0  0  0
    6.5787   -0.5664   -1.1631 C   0  0  0  0  0  0  0  0  0  0  0  0
    5.6872   -1.7218   -0.6947 C   0  0  0  0  0  0  0  0  0  0  0  0
    4.2416   -1.5694   -1.1695 C   0  0  0  0  0  0  0  0  0  0  0  0
   -4.0259    1.3163    2.1370 C   0  0  0  0  0  0  0  0  0  0  0  0
   -2.5130    1.2108    1.9314 C   0  0  0  0  0  0  0  0  0  0  0  0
   -0.4962    2.0512   -1.2639 C   0  0  0  0  0  0  0  0  0  0  0  0
    0.9055    1.6603   -1.7225 C   0  0  0  0  0  0  0  0  0  0  0  0
   -6.5155   -0.9236   -0.7427 C   0  0  0  0  0  0  0  0  0  0  0  0
   -1.7207   -1.3201   -0.0606 C   0  0  0  0  0  0  0  0  0  0  0  0
   -5.0132   -0.8611   -0.9764 C   0  0  0  0  0  0  0  0  0  0  0  0
   -0.3268   -0.9645   -0.5693 C   0  0  0  0  0  0  0  0  0  0  0  0
   -6.0996    1.0634    0.8229 C   0  0  0  0  0  0  0  0  0  0  0  0
   -4.8436    0.6406    1.0562 C   0  0  0  0  0  0  0  0  0  0  0  0
   -6.9992    0.3623   -0.1235 C   0  0  0  0  0  0  0  0  0  0  0  0
   -2.1746    1.1656    0.4401 C   0  0  0  0  0  0  0  0  0  0  0  0
   -0.6853    1.4515    0.1472 C   0  0  0  0  0  0  0  0  0  0  0  0
   -2.7170   -0.1496   -0.1843 C   0  0  0  0  0  0  0  0  0  0  0  0
    1.5060    0.8335   -0.5856 C   0  0  0  0  0  0  0  0  0  0  0  0
    3.4944   -0.4678   -0.4521 C   0  0  0  0  0  0  0  0  0  0  0  0
   -4.1890   -0.5206    0.3029 C   0  0  0  0  0  0  0  0  0  0  0  0
    0.2809    0.2486    0.1654 C   0  0  0  0  0  0  0  0  0  0  0  0
   -8.1287    0.8029   -0.3219 O   0  0  0  0  0  0  0  0  0  0  0  0
    3.8432    0.0579    0.5946 O   0  0  0  0  0  0  0  0  0  0  0  0
    2.3540   -0.1793   -1.1395 O   0  0  0  0  0  0  0  0  0  0  0  0
    7.8663   -1.5845    1.1977 H   0  0  0  0  0  0  0  0  0  0  0  0
    9.4025   -0.7746    0.8778 H   0  0  0  0  0  0  0  0  0  0  0  0
    7.9397    0.1888    1.1419 H   0  0  0  0  0  0  0  0  0  0  0  0
   -3.9298   -2.6619    0.7530 H   0  0  0  0  0  0  0  0  0  0  0  0
   -5.2504   -1.9148    1.6409 H   0  0  0  0  0  0  0  0  0  0  0  0
   -3.5951   -1.6003    2.1324 H   0  0  0  0  0  0  0  0  0  0  0  0
    1.1415    0.6963    2.1255 H   0  0  0  0  0  0  0  0  0  0  0  0
    1.4344   -0.9578    1.5747 H   0  0  0  0  0  0  0  0  0  0  0  0
   -0.1464   -0.5021    2.1902 H   0  0  0  0  0  0  0  0  0  0  0  0
    8.6335    0.0426   -1.2793 H   0  0  0  0  0  0  0  0  0  0  0  0
    8.4203   -1.7038   -1.2257 H   0  0  0  0  0  0  0  0  0  0  0  0
    6.5007   -0.4747   -2.2536 H   0  0  0  0  0  0  0  0  0  0  0  0
    6.2246    0.3816   -0.7418 H   0  0  0  0  0  0  0  0  0  0  0  0
    5.7107   -1.8022    0.3977 H   0  0  0  0  0  0  0  0  0  0  0  0
    6.0855   -2.6622   -1.0946 H   0  0  0  0  0  0  0  0  0  0  0  0
    4.2255   -1.3713   -2.2471 H   0  0  0  0  0  0  0  0  0  0  0  0
    3.7001   -2.5032   -0.9805 H   0  0  0  0  0  0  0  0  0  0  0  0
   -4.2928    2.3804    2.1824 H   0  0  0  0  0  0  0  0  0  0  0  0
   -4.2811    0.8847    3.1125 H   0  0  0  0  0  0  0  0  0  0  0  0
   -2.0313    2.0665    2.4195 H   0  0  0  0  0  0  0  0  0  0  0  0
   -2.1438    0.3160    2.4417 H   0  0  0  0  0  0  0  0  0  0  0  0
   -1.2322    1.6645   -1.9776 H   0  0  0  0  0  0  0  0  0  0  0  0
   -0.6171    3.1399   -1.2405 H   0  0  0  0  0  0  0  0  0  0  0  0
    1.5199    2.5451   -1.9230 H   0  0  0  0  0  0  0  0  0  0  0  0
    0.8619    1.0938   -2.6602 H   0  0  0  0  0  0  0  0  0  0  0  0
   -7.0227   -1.0574   -1.7046 H   0  0  0  0  0  0  0  0  0  0  0  0
   -6.7951   -1.7574   -0.0918 H   0  0  0  0  0  0  0  0  0  0  0  0
   -1.6398   -1.6591    0.9764 H   0  0  0  0  0  0  0  0  0  0  0  0
   -2.0891   -2.1729   -0.6439 H   0  0  0  0  0  0  0  0  0  0  0  0
   -4.8374   -0.0912   -1.7414 H   0  0  0  0  0  0  0  0  0  0  0  0
   -4.6697   -1.8093   -1.4082 H   0  0  0  0  0  0  0  0  0  0  0  0
   -0.3937   -0.7755   -1.6478 H   0  0  0  0  0  0  0  0  0  0  0  0
    0.3267   -1.8392   -0.4582 H   0  0  0  0  0  0  0  0  0  0  0  0
   -6.5473    1.8946    1.3572 H   0  0  0  0  0  0  0  0  0  0  0  0
   -2.7320    1.9972   -0.0190 H   0  0  0  0  0  0  0  0  0  0  0  0
   -0.3258    2.2107    0.8571 H   0  0  0  0  0  0  0  0  0  0  0  0
   -2.7687    0.0614   -1.2621 H   0  0  0  0  0  0  0  0  0  0  0  0
    2.0680    1.5199    0.0626 H   0  0  0  0  0  0  0  0  0  0  0  0
  1  4  1  0
  2 24  1  0
  3 25  1  0
  4  5  1  0
  5  6  1  0
  6  7  1  0
  7 23  1  0
  8  9  1  0
  8 17  1  0
  9 19  1  0
 10 11  1  0
 10 20  1  0
 11 22  1  0
 12 14  1  0
 12 18  1  0
 13 15  1  0
 13 21  1  0
 14 24  1  0
 15 25  1  0
 16 17  2  0
 16 18  1  0
 17 24  1  0
 18 26  2  0
 19 20  1  0
 19 21  1  0
 20 25  1  0
 21 24  1  0
 22 25  1  0
 22 28  1  0
 23 27  2  0
 23 28  1  0
  1 29  1  0
  1 30  1  0
  1 31  1  0
  2 32  1  0
  2 33  1  0
  2 34  1  0
  3 35  1  0
  3 36  1  0
  3 37  1  0
  4 38  1  0
  4 39  1  0
  5 40  1  0
  5 41  1  0
  6 42  1  0
  6 43  1  0
  7 44  1  0
  7 45  1  0
  8 46  1  0
  8 47  1  0
  9 48  1  0
  9 49  1  0
 10 50  1  0
 10 51  1  0
 11 52  1  0
 11 53  1  0
 12 54  1  0
 12 55  1  0
 13 56  1  0
 13 57  1  0
 14 58  1  0
 14 59  1  0
 15 60  1  0
 15 61  1  0
 16 62  1  0
 19 63  1  0
 20 64  1  0
 21 65  1  0
 22 66  1  0
M  END
