
     RDKit          3D

 70 72  0  0  0  0  0  0  0  0999 V2000
   10.1286   -1.3720   -1.2601 C   0  0  0  0  0  0  0  0  0  0  0  0
   -6.4361    0.6276   -3.7323 C   0  0  0  0  0  0  0  0  0  0  0  0
    1.5685   -1.6163    1.8297 C   0  0  0  0  0  0  0  0  0  0  0  0
    1.4449    0.7833    2.5082 C   0  0  0  0  0  0  0  0  0  0  0  0
   -5.7277    1.2379    2.8573 C   0  0  0  0  0  0  0  0  0  0  0  0
   -5.1150   -1.1357    2.4392 C   0  0  0  0  0  0  0  0  0  0  0  0
    8.6549   -1.0349   -1.3641 C   0  0  0  0  0  0  0  0  0  0  0  0
    3.6258    0.4580    0.4804 C   0  0  0  0  0  0  0  0  0  0  0  0
    4.4775    0.5669   -0.7885 C   0  0  0  0  0  0  0  0  0  0  0  0
   -7.0857    0.4380   -1.3348 C   0  0  0  0  0  0  0  0  0  0  0  0
   -6.7980    0.3014    0.1336 C   0  0  0  0  0  0  0  0  0  0  0  0
    2.1505    0.2007    0.1372 C   0  0  0  0  0  0  0  0  0  0  0  0
    5.9363    0.8723   -0.4542 C   0  0  0  0  0  0  0  0  0  0  0  0
   -4.6687    0.1906   -1.9364 C   0  0  0  0  0  0  0  0  0  0  0  0
   -0.6183   -0.8272   -0.3564 C   0  0  0  0  0  0  0  0  0  0  0  0
   -1.3094    0.2809    1.6416 C   0  0  0  0  0  0  0  0  0  0  0  0
   -6.1275    0.4253   -2.2768 C   0  0  0  0  0  0  0  0  0  0  0  0
   -0.2585   -0.2251    0.8617 C   0  0  0  0  0  0  0  0  0  0  0  0
   -4.4354   -0.3119   -0.4883 C   0  0  0  0  0  0  0  0  0  0  0  0
   -5.3133    0.5355    0.4589 C   0  0  0  0  0  0  0  0  0  0  0  0
   -1.9511   -0.8605   -0.7903 C   0  0  0  0  0  0  0  0  0  0  0  0
   -2.6455    0.2193    1.2162 C   0  0  0  0  0  0  0  0  0  0  0  0
   -2.9880   -0.3003   -0.0354 C   0  0  0  0  0  0  0  0  0  0  0  0
    1.2158   -0.1964    1.3319 C   0  0  0  0  0  0  0  0  0  0  0  0
   -4.9242    0.3052    1.9332 C   0  0  0  0  0  0  0  0  0  0  0  0
    6.7270    0.8105   -1.6905 N   0  0  0  0  0  0  0  0  0  0  0  0
   -2.2446   -1.4913   -1.9684 O   0  0  0  0  0  0  0  0  0  0  0  0
    8.7739    1.3993   -0.3188 O   0  0  0  0  0  0  0  0  0  0  0  0
    8.9190    1.1399   -2.8292 O   0  0  0  0  0  0  0  0  0  0  0  0
   -3.5502    0.6969    2.1264 O   0  0  0  0  0  0  0  0  0  0  0  0
    8.4026    0.7278   -1.5438 S   0  0  0  0  0  6  0  0  0  0  0  0
   10.2664   -2.4516   -1.1438 H   0  0  0  0  0  0  0  0  0  0  0  0
   10.6688   -1.0545   -2.1575 H   0  0  0  0  0  0  0  0  0  0  0  0
   10.5865   -0.8743   -0.4002 H   0  0  0  0  0  0  0  0  0  0  0  0
   -6.1669   -0.2645   -4.3076 H   0  0  0  0  0  0  0  0  0  0  0  0
   -7.4987    0.8315   -3.9032 H   0  0  0  0  0  0  0  0  0  0  0  0
   -5.8680    1.4787   -4.1228 H   0  0  0  0  0  0  0  0  0  0  0  0
    2.5847   -1.6634    2.2340 H   0  0  0  0  0  0  0  0  0  0  0  0
    0.8866   -1.9356    2.6283 H   0  0  0  0  0  0  0  0  0  0  0  0
    1.4977   -2.3582    1.0253 H   0  0  0  0  0  0  0  0  0  0  0  0
    1.1839    1.8103    2.2257 H   0  0  0  0  0  0  0  0  0  0  0  0
    2.4878    0.7823    2.8434 H   0  0  0  0  0  0  0  0  0  0  0  0
    0.8566    0.5090    3.3922 H   0  0  0  0  0  0  0  0  0  0  0  0
   -6.7867    0.9674    2.8969 H   0  0  0  0  0  0  0  0  0  0  0  0
   -5.3321    1.2078    3.8787 H   0  0  0  0  0  0  0  0  0  0  0  0
   -5.6464    2.2797    2.5287 H   0  0  0  0  0  0  0  0  0  0  0  0
   -4.5316   -1.8607    1.8643 H   0  0  0  0  0  0  0  0  0  0  0  0
   -4.7640   -1.2257    3.4745 H   0  0  0  0  0  0  0  0  0  0  0  0
   -6.1644   -1.4433    2.4101 H   0  0  0  0  0  0  0  0  0  0  0  0
    8.2117   -1.5234   -2.2366 H   0  0  0  0  0  0  0  0  0  0  0  0
    8.1309   -1.3571   -0.4596 H   0  0  0  0  0  0  0  0  0  0  0  0
    4.0210   -0.3552    1.0989 H   0  0  0  0  0  0  0  0  0  0  0  0
    3.7195    1.3872    1.0544 H   0  0  0  0  0  0  0  0  0  0  0  0
    4.4171   -0.3749   -1.3484 H   0  0  0  0  0  0  0  0  0  0  0  0
    4.0767    1.3493   -1.4457 H   0  0  0  0  0  0  0  0  0  0  0  0
   -8.1271    0.5770   -1.6149 H   0  0  0  0  0  0  0  0  0  0  0  0
   -7.1225   -0.6946    0.4529 H   0  0  0  0  0  0  0  0  0  0  0  0
   -7.4140    1.0302    0.6701 H   0  0  0  0  0  0  0  0  0  0  0  0
    2.1256   -0.5909   -0.6230 H   0  0  0  0  0  0  0  0  0  0  0  0
    1.7516    1.1033   -0.3480 H   0  0  0  0  0  0  0  0  0  0  0  0
    6.0174    1.8735   -0.0188 H   0  0  0  0  0  0  0  0  0  0  0  0
    6.3102    0.1367    0.2655 H   0  0  0  0  0  0  0  0  0  0  0  0
   -4.2807   -0.5433   -2.6499 H   0  0  0  0  0  0  0  0  0  0  0  0
   -4.1158    1.1240   -2.1036 H   0  0  0  0  0  0  0  0  0  0  0  0
    0.1428   -1.2913   -0.9752 H   0  0  0  0  0  0  0  0  0  0  0  0
   -1.1285    0.7192    2.6198 H   0  0  0  0  0  0  0  0  0  0  0  0
   -4.7703   -1.3583   -0.4351 H   0  0  0  0  0  0  0  0  0  0  0  0
   -5.0905    1.5936    0.2415 H   0  0  0  0  0  0  0  0  0  0  0  0
    6.4641    1.4642   -2.4302 H   0  0  0  0  0  0  0  0  0  0  0  0
   -1.4274   -1.8499   -2.3504 H   0  0  0  0  0  0  0  0  0  0  0  0
  1  7  1  0
  2 17  1  0
  3 24  1  0
  4 24  1  0
  5 25  1  0
  6 25  1  0
  7 31  1  0
  8  9  1  0
  8 12  1  0
  9 13  1  0
 10 11  1  0
 10 17  2  0
 11 20  1  0
 12 24  1  0
 13 26  1  0
 14 17  1  0
 14 19  1  0
 15 18  2  0
 15 21  1  0
 16 18  1  0
 16 22  2  0
 18 24  1  0
 19 20  1  0
 19 23  1  0
 20 25  1  0
 21 23  2  0
 21 27  1  0
 22 23  1  0
 22 30  1  0
 25 30  1  0
 26 31  1  0
 28 31  2  0
 29 31  2  0
  1 32  1  0
  1 33  1  0
  1 34  1  0
  2 35  1  0
  2 36  1  0
  2 37  1  0
  3 38  1  0
  3 39  1  0
  3 40  1  0
  4 41  1  0
  4 42  1  0
  4 43  1  0
  5 44  1  0
  5 45  1  0
  5 46  1  0
  6 47  1  0
  6 48  1  0
  6 49  1  0
  7 50  1  0
  7 51  1  0
  8 52  1  0
  8 53  1  0
  9 54  1  0
  9 55  1  0
 10 56  1  0
 11 57  1  0
 11 58  1  0
 12 59  1  0
 12 60  1  0
 13 61  1  0
 13 62  1  0
 14 63  1  0
 14 64  1  0
 15 65  1  0
 16 66  1  0
 19 67  1  0
 20 68  1  0
 26 69  1  0
 27 70  1  0
M  END
