
     RDKit          3D

 68 70  0  0  0  0  0  0  0  0999 V2000
    9.0653    0.6099   -1.0958 C   0  0  0  0  0  0  0  0  0  0  0  0
    2.6495   -1.5686    2.1347 C   0  0  0  0  0  0  0  0  0  0  0  0
    2.8852    0.9054    1.9062 C   0  0  0  0  0  0  0  0  0  0  0  0
   -4.0788    2.5481    2.5384 C   0  0  0  0  0  0  0  0  0  0  0  0
   -3.7809    0.1236    3.0280 C   0  0  0  0  0  0  0  0  0  0  0  0
    7.5454    0.6041   -1.1448 C   0  0  0  0  0  0  0  0  0  0  0  0
    6.9908   -0.8198   -1.1975 C   0  0  0  0  0  0  0  0  0  0  0  0
    5.4623   -0.8707   -1.3030 C   0  0  0  0  0  0  0  0  0  0  0  0
    4.7579   -0.4447   -0.0090 C   0  0  0  0  0  0  0  0  0  0  0  0
   -6.0505    0.6744   -0.9600 C   0  0  0  0  0  0  0  0  0  0  0  0
   -5.5978    0.7927    0.4961 C   0  0  0  0  0  0  0  0  0  0  0  0
    3.2310   -0.5653   -0.1389 C   0  0  0  0  0  0  0  0  0  0  0  0
   -3.7975   -0.3652   -1.5252 C   0  0  0  0  0  0  0  0  0  0  0  0
    0.3168   -1.3125    0.0152 C   0  0  0  0  0  0  0  0  0  0  0  0
    0.0137    0.5835    1.4284 C   0  0  0  0  0  0  0  0  0  0  0  0
   -5.6783   -0.4646   -3.1998 C   0  0  0  0  0  0  0  0  0  0  0  0
   -5.3245   -0.4534   -1.7074 C   0  0  0  0  0  0  0  0  0  0  0  0
    0.8933   -0.3452    0.8547 C   0  0  0  0  0  0  0  0  0  0  0  0
   -3.4070   -0.3218   -0.0315 C   0  0  0  0  0  0  0  0  0  0  0  0
   -4.0710    0.9348    0.5806 C   0  0  0  0  0  0  0  0  0  0  0  0
   -1.0556   -1.3082   -0.2753 C   0  0  0  0  0  0  0  0  0  0  0  0
   -1.3655    0.5601    1.1654 C   0  0  0  0  0  0  0  0  0  0  0  0
   -1.9195   -0.3435    0.2555 C   0  0  0  0  0  0  0  0  0  0  0  0
    2.4062   -0.3758    1.1817 C   0  0  0  0  0  0  0  0  0  0  0  0
   -3.5117    1.2262    1.9879 C   0  0  0  0  0  0  0  0  0  0  0  0
   -7.0677   -0.6982   -3.3928 O   0  0  0  0  0  0  0  0  0  0  0  0
   -1.5635   -2.3087   -1.0599 O   0  0  0  0  0  0  0  0  0  0  0  0
   -2.0925    1.4648    1.8931 O   0  0  0  0  0  0  0  0  0  0  0  0
    9.4413    1.6374   -1.0921 H   0  0  0  0  0  0  0  0  0  0  0  0
    9.4901    0.0977   -1.9648 H   0  0  0  0  0  0  0  0  0  0  0  0
    9.4302    0.1132   -0.1911 H   0  0  0  0  0  0  0  0  0  0  0  0
    2.0333   -1.4850    3.0376 H   0  0  0  0  0  0  0  0  0  0  0  0
    2.4027   -2.5239    1.6581 H   0  0  0  0  0  0  0  0  0  0  0  0
    3.6925   -1.6246    2.4603 H   0  0  0  0  0  0  0  0  0  0  0  0
    2.7338    1.7950    1.2818 H   0  0  0  0  0  0  0  0  0  0  0  0
    2.3621    1.0591    2.8578 H   0  0  0  0  0  0  0  0  0  0  0  0
    3.9487    0.8532    2.1641 H   0  0  0  0  0  0  0  0  0  0  0  0
   -3.5442    2.8504    3.4473 H   0  0  0  0  0  0  0  0  0  0  0  0
   -5.1437    2.4793    2.7818 H   0  0  0  0  0  0  0  0  0  0  0  0
   -3.9372    3.3620    1.8182 H   0  0  0  0  0  0  0  0  0  0  0  0
   -3.3085   -0.8238    2.7568 H   0  0  0  0  0  0  0  0  0  0  0  0
   -4.8515   -0.0538    3.1689 H   0  0  0  0  0  0  0  0  0  0  0  0
   -3.3526    0.4026    3.9979 H   0  0  0  0  0  0  0  0  0  0  0  0
    7.1660    1.1319   -0.2650 H   0  0  0  0  0  0  0  0  0  0  0  0
    7.2117    1.1615   -2.0264 H   0  0  0  0  0  0  0  0  0  0  0  0
    7.3203   -1.3810   -0.3149 H   0  0  0  0  0  0  0  0  0  0  0  0
    7.4118   -1.3316   -2.0719 H   0  0  0  0  0  0  0  0  0  0  0  0
    5.1727   -1.9024   -1.5403 H   0  0  0  0  0  0  0  0  0  0  0  0
    5.1256   -0.2450   -2.1387 H   0  0  0  0  0  0  0  0  0  0  0  0
    5.1207   -1.0707    0.8141 H   0  0  0  0  0  0  0  0  0  0  0  0
    5.0207    0.5936    0.2199 H   0  0  0  0  0  0  0  0  0  0  0  0
   -7.1324    0.5019   -0.9785 H   0  0  0  0  0  0  0  0  0  0  0  0
   -5.8742    1.6309   -1.4688 H   0  0  0  0  0  0  0  0  0  0  0  0
   -6.1036    1.6510    0.9464 H   0  0  0  0  0  0  0  0  0  0  0  0
   -5.9263   -0.0953    1.0467 H   0  0  0  0  0  0  0  0  0  0  0  0
    2.8941    0.1713   -0.8828 H   0  0  0  0  0  0  0  0  0  0  0  0
    3.0133   -1.5521   -0.5675 H   0  0  0  0  0  0  0  0  0  0  0  0
   -3.4071    0.5253   -2.0369 H   0  0  0  0  0  0  0  0  0  0  0  0
   -3.3526   -1.2228   -2.0349 H   0  0  0  0  0  0  0  0  0  0  0  0
    0.9367   -2.0988   -0.4013 H   0  0  0  0  0  0  0  0  0  0  0  0
    0.3644    1.3361    2.1275 H   0  0  0  0  0  0  0  0  0  0  0  0
   -5.1409   -1.2683   -3.7130 H   0  0  0  0  0  0  0  0  0  0  0  0
   -5.4111    0.4796   -3.6873 H   0  0  0  0  0  0  0  0  0  0  0  0
   -5.6709   -1.4024   -1.2761 H   0  0  0  0  0  0  0  0  0  0  0  0
   -3.8219   -1.2169    0.4539 H   0  0  0  0  0  0  0  0  0  0  0  0
   -3.7837    1.7942   -0.0470 H   0  0  0  0  0  0  0  0  0  0  0  0
   -7.5410    0.1162   -3.1486 H   0  0  0  0  0  0  0  0  0  0  0  0
   -0.8446   -2.9062   -1.3212 H   0  0  0  0  0  0  0  0  0  0  0  0
  1  6  1  0
  2 24  1  0
  3 24  1  0
  4 25  1  0
  5 25  1  0
  6  7  1  0
  7  8  1  0
  8  9  1  0
  9 12  1  0
 10 11  1  0
 10 17  1  0
 11 20  1  0
 12 24  1  0
 13 17  1  0
 13 19  1  0
 14 18  2  0
 14 21  1  0
 15 18  1  0
 15 22  2  0
 16 17  1  0
 16 26  1  0
 18 24  1  0
 19 20  1  0
 19 23  1  0
 20 25  1  0
 21 23  2  0
 21 27  1  0
 22 23  1  0
 22 28  1  0
 25 28  1  0
  1 29  1  0
  1 30  1  0
  1 31  1  0
  2 32  1  0
  2 33  1  0
  2 34  1  0
  3 35  1  0
  3 36  1  0
  3 37  1  0
  4 38  1  0
  4 39  1  0
  4 40  1  0
  5 41  1  0
  5 42  1  0
  5 43  1  0
  6 44  1  0
  6 45  1  0
  7 46  1  0
  7 47  1  0
  8 48  1  0
  8 49  1  0
  9 50  1  0
  9 51  1  0
 10 52  1  0
 10 53  1  0
 11 54  1  0
 11 55  1  0
 12 56  1  0
 12 57  1  0
 13 58  1  0
 13 59  1  0
 14 60  1  0
 15 61  1  0
 16 62  1  0
 16 63  1  0
 17 64  1  0
 19 65  1  0
 20 66  1  0
 26 67  1  0
 27 68  1  0
M  END
