
     RDKit          3D

 66 69  0  0  0  0  0  0  0  0999 V2000
    7.4587   -0.2412    2.1294 C   0  0  0  0  0  0  0  0  0  0  0  0
   -6.0033   -2.8404   -0.0005 C   0  0  0  0  0  0  0  0  0  0  0  0
   -3.5633    2.4113    2.2532 C   0  0  0  0  0  0  0  0  0  0  0  0
   -3.3629   -0.0566    2.3700 C   0  0  0  0  0  0  0  0  0  0  0  0
    6.2240   -0.9406    1.5821 C   0  0  0  0  0  0  0  0  0  0  0  0
    5.6409   -0.2712    0.3343 C   0  0  0  0  0  0  0  0  0  0  0  0
    5.0742    1.1249    0.6058 C   0  0  0  0  0  0  0  0  0  0  0  0
    4.4575    1.7876   -0.6333 C   0  0  0  0  0  0  0  0  0  0  0  0
    2.2800   -1.5327   -2.8683 C   0  0  0  0  0  0  0  0  0  0  0  0
    2.9314    1.6424   -0.7434 C   0  0  0  0  0  0  0  0  0  0  0  0
    2.9923   -0.2867   -2.3725 C   0  0  0  0  0  0  0  0  0  0  0  0
    0.8315   -1.1972   -3.1921 C   0  0  0  0  0  0  0  0  0  0  0  0
   -6.1060   -0.3729    0.3074 C   0  0  0  0  0  0  0  0  0  0  0  0
   -5.5556    1.0189    0.2776 C   0  0  0  0  0  0  0  0  0  0  0  0
   -4.0108   -1.3708   -0.6075 C   0  0  0  0  0  0  0  0  0  0  0  0
    0.1354    0.7324    0.0172 C   0  0  0  0  0  0  0  0  0  0  0  0
   -5.4174   -1.4591   -0.0760 C   0  0  0  0  0  0  0  0  0  0  0  0
    2.3876    0.2237   -1.0486 C   0  0  0  0  0  0  0  0  0  0  0  0
    0.1297   -0.4974   -2.0517 C   0  0  0  0  0  0  0  0  0  0  0  0
    0.8567    0.1700   -1.0483 C   0  0  0  0  0  0  0  0  0  0  0  0
   -3.5061    0.0656   -0.8742 C   0  0  0  0  0  0  0  0  0  0  0  0
   -4.0268    1.1201    0.1210 C   0  0  0  0  0  0  0  0  0  0  0  0
   -1.2628    0.6977    0.0674 C   0  0  0  0  0  0  0  0  0  0  0  0
   -1.9979    0.1017   -0.9559 C   0  0  0  0  0  0  0  0  0  0  0  0
   -1.2804   -0.4839   -2.0145 C   0  0  0  0  0  0  0  0  0  0  0  0
   -3.2039    1.1506    1.4367 C   0  0  0  0  0  0  0  0  0  0  0  0
   -1.9223   -1.0797   -3.0711 O   0  0  0  0  0  0  0  0  0  0  0  0
   -1.7971    1.3095    1.1650 O   0  0  0  0  0  0  0  0  0  0  0  0
    8.2257   -0.1345    1.3559 H   0  0  0  0  0  0  0  0  0  0  0  0
    7.2182    0.7520    2.5196 H   0  0  0  0  0  0  0  0  0  0  0  0
    7.8862   -0.8240    2.9518 H   0  0  0  0  0  0  0  0  0  0  0  0
   -6.0442   -3.2910   -0.9974 H   0  0  0  0  0  0  0  0  0  0  0  0
   -7.0203   -2.8352    0.4055 H   0  0  0  0  0  0  0  0  0  0  0  0
   -5.3897   -3.4769    0.6451 H   0  0  0  0  0  0  0  0  0  0  0  0
   -2.8657    2.5449    3.0893 H   0  0  0  0  0  0  0  0  0  0  0  0
   -4.5745    2.3712    2.6672 H   0  0  0  0  0  0  0  0  0  0  0  0
   -3.4728    3.3142    1.6384 H   0  0  0  0  0  0  0  0  0  0  0  0
   -2.9419   -0.9681    1.9419 H   0  0  0  0  0  0  0  0  0  0  0  0
   -4.4062   -0.2341    2.6441 H   0  0  0  0  0  0  0  0  0  0  0  0
   -2.7997    0.1026    3.2982 H   0  0  0  0  0  0  0  0  0  0  0  0
    5.4597   -0.9994    2.3658 H   0  0  0  0  0  0  0  0  0  0  0  0
    6.4952   -1.9720    1.3262 H   0  0  0  0  0  0  0  0  0  0  0  0
    6.4123   -0.2119   -0.4432 H   0  0  0  0  0  0  0  0  0  0  0  0
    4.8546   -0.9247   -0.0531 H   0  0  0  0  0  0  0  0  0  0  0  0
    5.8943    1.7688    0.9457 H   0  0  0  0  0  0  0  0  0  0  0  0
    4.3462    1.0879    1.4246 H   0  0  0  0  0  0  0  0  0  0  0  0
    4.6581    2.8650   -0.5564 H   0  0  0  0  0  0  0  0  0  0  0  0
    4.9599    1.4615   -1.5498 H   0  0  0  0  0  0  0  0  0  0  0  0
    2.7769   -1.9189   -3.7655 H   0  0  0  0  0  0  0  0  0  0  0  0
    2.3302   -2.3203   -2.1059 H   0  0  0  0  0  0  0  0  0  0  0  0
    2.5824    2.3256   -1.5302 H   0  0  0  0  0  0  0  0  0  0  0  0
    2.5049    2.0296    0.1885 H   0  0  0  0  0  0  0  0  0  0  0  0
    4.0549   -0.5168   -2.2428 H   0  0  0  0  0  0  0  0  0  0  0  0
    2.9308    0.4923   -3.1441 H   0  0  0  0  0  0  0  0  0  0  0  0
    0.7875   -0.5490   -4.0761 H   0  0  0  0  0  0  0  0  0  0  0  0
    0.3183   -2.1344   -3.4380 H   0  0  0  0  0  0  0  0  0  0  0  0
   -7.1288   -0.4767    0.6655 H   0  0  0  0  0  0  0  0  0  0  0  0
   -5.8959    1.5506    1.1705 H   0  0  0  0  0  0  0  0  0  0  0  0
   -6.0283    1.5309   -0.5713 H   0  0  0  0  0  0  0  0  0  0  0  0
   -3.9666   -1.9332   -1.5496 H   0  0  0  0  0  0  0  0  0  0  0  0
   -3.3425   -1.9034    0.0786 H   0  0  0  0  0  0  0  0  0  0  0  0
    0.6561    1.2007    0.8493 H   0  0  0  0  0  0  0  0  0  0  0  0
    2.6983   -0.4573   -0.2465 H   0  0  0  0  0  0  0  0  0  0  0  0
   -3.9041    0.3767   -1.8513 H   0  0  0  0  0  0  0  0  0  0  0  0
   -3.8373    2.0959   -0.3567 H   0  0  0  0  0  0  0  0  0  0  0  0
   -2.8154   -0.7144   -3.1540 H   0  0  0  0  0  0  0  0  0  0  0  0
  1  5  1  0
  2 17  1  0
  3 26  1  0
  4 26  1  0
  5  6  1  0
  6  7  1  0
  7  8  1  0
  8 10  1  0
  9 11  1  0
  9 12  1  0
 10 18  1  0
 11 18  1  0
 12 19  1  0
 13 14  1  0
 13 17  2  0
 14 22  1  0
 15 17  1  0
 15 21  1  0
 16 20  1  0
 16 23  2  0
 18 20  1  0
 19 20  2  0
 19 25  1  0
 21 22  1  0
 21 24  1  0
 22 26  1  0
 23 24  1  0
 23 28  1  0
 24 25  2  0
 25 27  1  0
 26 28  1  0
  1 29  1  0
  1 30  1  0
  1 31  1  0
  2 32  1  0
  2 33  1  0
  2 34  1  0
  3 35  1  0
  3 36  1  0
  3 37  1  0
  4 38  1  0
  4 39  1  0
  4 40  1  0
  5 41  1  0
  5 42  1  0
  6 43  1  0
  6 44  1  0
  7 45  1  0
  7 46  1  0
  8 47  1  0
  8 48  1  0
  9 49  1  0
  9 50  1  0
 10 51  1  0
 10 52  1  0
 11 53  1  0
 11 54  1  0
 12 55  1  0
 12 56  1  0
 13 57  1  0
 14 58  1  0
 14 59  1  0
 15 60  1  0
 15 61  1  0
 16 62  1  0
 18 63  1  0
 21 64  1  0
 22 65  1  0
 27 66  1  0
M  END
