
     RDKit          3D

 61 63  0  0  0  0  0  0  0  0999 V2000
   -1.1184   -2.8676   -0.3896 C   0  0  0  0  0  0  0  0  0  0  0  0
    2.3933    1.8440    0.4221 C   0  0  0  0  0  0  0  0  0  0  0  0
    2.5729   -0.4657    1.4779 C   0  0  0  0  0  0  0  0  0  0  0  0
   -4.6555   -0.2251   -3.0815 C   0  0  0  0  0  0  0  0  0  0  0  0
   -5.6494   -1.0793   -2.6098 C   0  0  0  0  0  0  0  0  0  0  0  0
   -3.4891   -0.0241   -2.3422 C   0  0  0  0  0  0  0  0  0  0  0  0
   -4.1586    0.2709    2.6679 C   0  0  0  0  0  0  0  0  0  0  0  0
   -3.1540    1.9831    1.2911 C   0  0  0  0  0  0  0  0  0  0  0  0
    7.0363   -0.0809   -1.2761 C   0  0  0  0  0  0  0  0  0  0  0  0
   -5.0991    1.1954    3.1340 C   0  0  0  0  0  0  0  0  0  0  0  0
   -4.0983    2.9019    1.7519 C   0  0  0  0  0  0  0  0  0  0  0  0
    5.6736   -0.2470   -1.5099 C   0  0  0  0  0  0  0  0  0  0  0  0
   -4.3010   -1.5392   -0.6543 C   0  0  0  0  0  0  0  0  0  0  0  0
   -2.1819   -0.3714    1.2270 C   0  0  0  0  0  0  0  0  0  0  0  0
   -6.4660   -2.6474   -0.9082 C   0  0  0  0  0  0  0  0  0  0  0  0
    6.4967    0.8960    0.8251 C   0  0  0  0  0  0  0  0  0  0  0  0
   -0.8718   -1.4025   -0.7674 C   0  0  0  0  0  0  0  0  0  0  0  0
   -3.1917    0.6476    1.7238 C   0  0  0  0  0  0  0  0  0  0  0  0
   -5.4727   -1.7416   -1.3952 C   0  0  0  0  0  0  0  0  0  0  0  0
   -3.2963   -0.6737   -1.1106 C   0  0  0  0  0  0  0  0  0  0  0  0
    7.4698    0.5047   -0.0806 C   0  0  0  0  0  0  0  0  0  0  0  0
   -5.0714    2.5027    2.6693 C   0  0  0  0  0  0  0  0  0  0  0  0
   -2.0063   -0.4227   -0.3213 C   0  0  0  0  0  0  0  0  0  0  0  0
    4.7813    0.1720   -0.5355 C   0  0  0  0  0  0  0  0  0  0  0  0
    1.1540   -0.0707   -0.5459 C   0  0  0  0  0  0  0  0  0  0  0  0
    2.4600    0.3320    0.1674 C   0  0  0  0  0  0  0  0  0  0  0  0
    8.9264    0.6632    0.2388 C   0  0  0  0  0  0  0  0  0  0  0  0
   -6.2402    3.6478    3.2286 Cl  0  0  0  0  0  0  0  0  0  0  0  0
    9.4912   -0.4973    0.6736 F   0  0  0  0  0  0  0  0  0  0  0  0
    9.6642    1.0538   -0.8348 F   0  0  0  0  0  0  0  0  0  0  0  0
    9.1757    1.5782    1.2069 F   0  0  0  0  0  0  0  0  0  0  0  0
   -7.2425   -3.4085   -0.4945 N   0  0  0  0  0  0  0  0  0  0  0  0
    5.1665    0.7496    0.6205 N   0  0  0  0  0  0  0  0  0  0  0  0
    0.3882   -1.0129   -0.1312 N   0  0  0  0  0  0  0  0  0  0  0  0
    0.9054    0.6483   -1.6603 O   0  0  0  0  0  0  0  0  0  0  0  0
    3.4529   -0.0436   -0.8055 O   0  0  0  0  0  0  0  0  0  0  0  0
   -1.2072   -3.0056    0.6941 H   0  0  0  0  0  0  0  0  0  0  0  0
   -2.0199   -3.2591   -0.8734 H   0  0  0  0  0  0  0  0  0  0  0  0
   -0.2768   -3.4860   -0.7197 H   0  0  0  0  0  0  0  0  0  0  0  0
    1.4127    2.1429    0.8121 H   0  0  0  0  0  0  0  0  0  0  0  0
    2.5863    2.4123   -0.4987 H   0  0  0  0  0  0  0  0  0  0  0  0
    3.1464    2.1653    1.1525 H   0  0  0  0  0  0  0  0  0  0  0  0
    3.4297   -0.1606    2.0843 H   0  0  0  0  0  0  0  0  0  0  0  0
    1.6784   -0.3390    2.1000 H   0  0  0  0  0  0  0  0  0  0  0  0
    2.7052   -1.5370    1.2728 H   0  0  0  0  0  0  0  0  0  0  0  0
   -4.7951    0.2865   -4.0272 H   0  0  0  0  0  0  0  0  0  0  0  0
   -6.5514   -1.2277   -3.1962 H   0  0  0  0  0  0  0  0  0  0  0  0
   -2.7350    0.6581   -2.7302 H   0  0  0  0  0  0  0  0  0  0  0  0
   -4.1967   -0.7480    3.0486 H   0  0  0  0  0  0  0  0  0  0  0  0
   -2.3898    2.3308    0.5983 H   0  0  0  0  0  0  0  0  0  0  0  0
    7.7561   -0.4151   -2.0216 H   0  0  0  0  0  0  0  0  0  0  0  0
   -5.8491    0.8868    3.8597 H   0  0  0  0  0  0  0  0  0  0  0  0
   -4.0672    3.9270    1.3955 H   0  0  0  0  0  0  0  0  0  0  0  0
    5.3152   -0.7020   -2.4275 H   0  0  0  0  0  0  0  0  0  0  0  0
   -4.1797   -2.0710    0.2847 H   0  0  0  0  0  0  0  0  0  0  0  0
   -2.4550   -1.3607    1.6138 H   0  0  0  0  0  0  0  0  0  0  0  0
   -1.2211   -0.1281    1.7040 H   0  0  0  0  0  0  0  0  0  0  0  0
    6.7588    1.3470    1.7766 H   0  0  0  0  0  0  0  0  0  0  0  0
   -0.7697   -1.3839   -1.8623 H   0  0  0  0  0  0  0  0  0  0  0  0
   -1.6631    0.5833   -0.6137 H   0  0  0  0  0  0  0  0  0  0  0  0
    0.1437    0.3140   -2.1491 H   0  0  0  0  0  0  0  0  0  0  0  0
  1 17  1  0
  2 26  1  0
  3 26  1  0
  4  5  2  0
  4  6  1  0
  5 19  1  0
  6 20  2  0
  7 10  2  0
  7 18  1  0
  8 11  1  0
  8 18  2  0
  9 12  2  0
  9 21  1  0
 10 22  1  0
 11 22  2  0
 12 24  1  0
 13 19  2  0
 13 20  1  0
 14 18  1  0
 14 23  1  0
 15 19  1  0
 15 32  3  0
 16 21  2  0
 16 33  1  0
 17 23  1  0
 17 34  1  0
 20 23  1  0
 21 27  1  0
 22 28  1  0
 24 33  2  0
 24 36  1  0
 25 26  1  0
 25 34  2  3
 25 35  1  0
 26 36  1  0
 27 29  1  0
 27 30  1  0
 27 31  1  0
  1 37  1  0
  1 38  1  0
  1 39  1  0
  2 40  1  0
  2 41  1  0
  2 42  1  0
  3 43  1  0
  3 44  1  0
  3 45  1  0
  4 46  1  0
  5 47  1  0
  6 48  1  0
  7 49  1  0
  8 50  1  0
  9 51  1  0
 10 52  1  0
 11 53  1  0
 12 54  1  0
 13 55  1  0
 14 56  1  0
 14 57  1  0
 16 58  1  0
 17 59  1  0
 23 60  1  0
 35 61  1  0
M  END
