
     RDKit          3D

 61 65  0  0  0  0  0  0  0  0999 V2000
   -7.4660   -1.6257    1.0727 C   0  0  0  0  0  0  0  0  0  0  0  0
   -3.7269    3.4981   -0.4110 C   0  0  0  0  0  0  0  0  0  0  0  0
   -2.6011    3.6276   -1.2136 C   0  0  0  0  0  0  0  0  0  0  0  0
   -6.5495   -2.7659    0.6414 C   0  0  0  0  0  0  0  0  0  0  0  0
   -6.6899   -0.4858    1.7401 C   0  0  0  0  0  0  0  0  0  0  0  0
   -4.2682    2.2363   -0.1484 C   0  0  0  0  0  0  0  0  0  0  0  0
   -1.9962    2.5059   -1.7860 C   0  0  0  0  0  0  0  0  0  0  0  0
    7.6502   -1.0525    1.0800 C   0  0  0  0  0  0  0  0  0  0  0  0
    8.1083    1.2415    0.4394 C   0  0  0  0  0  0  0  0  0  0  0  0
    1.4878   -0.7209    0.5421 C   0  0  0  0  0  0  0  0  0  0  0  0
    2.5846    0.8467   -0.9495 C   0  0  0  0  0  0  0  0  0  0  0  0
    8.8284   -1.4618    0.4541 C   0  0  0  0  0  0  0  0  0  0  0  0
    9.2860    0.8276   -0.1850 C   0  0  0  0  0  0  0  0  0  0  0  0
    0.4676   -0.9055   -0.3931 C   0  0  0  0  0  0  0  0  0  0  0  0
    1.5616    0.6705   -1.8856 C   0  0  0  0  0  0  0  0  0  0  0  0
   -5.4333   -2.2717   -0.2845 C   0  0  0  0  0  0  0  0  0  0  0  0
   -5.1810   -0.5807    1.5154 C   0  0  0  0  0  0  0  0  0  0  0  0
    5.9948    0.7328    1.7375 C   0  0  0  0  0  0  0  0  0  0  0  0
   -3.0484   -0.9762   -1.4162 C   0  0  0  0  0  0  0  0  0  0  0  0
    7.2835    0.3047    1.0849 C   0  0  0  0  0  0  0  0  0  0  0  0
    2.5550    0.1440    0.2634 C   0  0  0  0  0  0  0  0  0  0  0  0
    9.6350   -0.5179   -0.1713 C   0  0  0  0  0  0  0  0  0  0  0  0
    0.5070   -0.2016   -1.6004 C   0  0  0  0  0  0  0  0  0  0  0  0
   -3.6663    1.0755   -0.6845 C   0  0  0  0  0  0  0  0  0  0  0  0
   -2.5479    1.2385   -1.5189 C   0  0  0  0  0  0  0  0  0  0  0  0
   -3.9463   -0.3315   -0.6001 C   0  0  0  0  0  0  0  0  0  0  0  0
    3.6169    0.2992    1.2936 C   0  0  0  0  0  0  0  0  0  0  0  0
   10.7658   -0.9108   -0.7731 F   0  0  0  0  0  0  0  0  0  0  0  0
    4.8856    0.5588    0.8289 N   0  0  0  0  0  0  0  0  0  0  0  0
   -4.9204   -0.9536    0.1243 N   0  0  0  0  0  0  0  0  0  0  0  0
   -2.2100   -0.0296   -1.9400 N   0  0  0  0  0  0  0  0  0  0  0  0
    3.3422    0.1642    2.4805 O   0  0  0  0  0  0  0  0  0  0  0  0
   -0.8658   -1.8466   -3.0878 O   0  0  0  0  0  0  0  0  0  0  0  0
   -0.6538    0.5685   -3.8349 O   0  0  0  0  0  0  0  0  0  0  0  0
   -0.7899   -0.4287   -2.7900 S   0  0  0  0  0  6  0  0  0  0  0  0
   -7.9915   -1.2362    0.1914 H   0  0  0  0  0  0  0  0  0  0  0  0
   -8.2397   -1.9993    1.7540 H   0  0  0  0  0  0  0  0  0  0  0  0
   -4.1989    4.3821    0.0114 H   0  0  0  0  0  0  0  0  0  0  0  0
   -2.1950    4.6171   -1.4140 H   0  0  0  0  0  0  0  0  0  0  0  0
   -6.1083   -3.2304    1.5317 H   0  0  0  0  0  0  0  0  0  0  0  0
   -7.1280   -3.5480    0.1367 H   0  0  0  0  0  0  0  0  0  0  0  0
   -6.8890   -0.4795    2.8180 H   0  0  0  0  0  0  0  0  0  0  0  0
   -7.0649    0.4690    1.3525 H   0  0  0  0  0  0  0  0  0  0  0  0
   -5.1620    2.1572    0.4619 H   0  0  0  0  0  0  0  0  0  0  0  0
   -1.1377    2.6351   -2.4392 H   0  0  0  0  0  0  0  0  0  0  0  0
    7.0182   -1.7964    1.5661 H   0  0  0  0  0  0  0  0  0  0  0  0
    7.8415    2.2974    0.4196 H   0  0  0  0  0  0  0  0  0  0  0  0
    1.4581   -1.2595    1.4890 H   0  0  0  0  0  0  0  0  0  0  0  0
    3.3809    1.5519   -1.1700 H   0  0  0  0  0  0  0  0  0  0  0  0
    9.1198   -2.5072    0.4499 H   0  0  0  0  0  0  0  0  0  0  0  0
    9.9335    1.5441   -0.6806 H   0  0  0  0  0  0  0  0  0  0  0  0
   -0.3395   -1.5997   -0.1700 H   0  0  0  0  0  0  0  0  0  0  0  0
    1.5922    1.2194   -2.8246 H   0  0  0  0  0  0  0  0  0  0  0  0
   -4.6297   -3.0178   -0.2937 H   0  0  0  0  0  0  0  0  0  0  0  0
   -5.8311   -2.1957   -1.3038 H   0  0  0  0  0  0  0  0  0  0  0  0
   -4.7487   -1.3420    2.1783 H   0  0  0  0  0  0  0  0  0  0  0  0
   -4.7100    0.3617    1.8106 H   0  0  0  0  0  0  0  0  0  0  0  0
    5.8306    0.1653    2.6608 H   0  0  0  0  0  0  0  0  0  0  0  0
    6.0329    1.7926    2.0143 H   0  0  0  0  0  0  0  0  0  0  0  0
   -2.9141   -2.0250   -1.6431 H   0  0  0  0  0  0  0  0  0  0  0  0
    5.0810    0.5704   -0.1626 H   0  0  0  0  0  0  0  0  0  0  0  0
  1  4  1  0
  1  5  1  0
  2  3  2  0
  2  6  1  0
  3  7  1  0
  4 16  1  0
  5 17  1  0
  6 24  2  0
  7 25  2  0
  8 12  2  0
  8 20  1  0
  9 13  1  0
  9 20  2  0
 10 14  2  0
 10 21  1  0
 11 15  1  0
 11 21  2  0
 12 22  1  0
 13 22  2  0
 14 23  1  0
 15 23  2  0
 16 30  1  0
 17 30  1  0
 18 20  1  0
 18 29  1  0
 19 26  2  0
 19 31  1  0
 21 27  1  0
 22 28  1  0
 23 35  1  0
 24 25  1  0
 24 26  1  0
 25 31  1  0
 26 30  1  0
 27 29  1  0
 27 32  2  0
 31 35  1  0
 33 35  2  0
 34 35  2  0
  1 36  1  0
  1 37  1  0
  2 38  1  0
  3 39  1  0
  4 40  1  0
  4 41  1  0
  5 42  1  0
  5 43  1  0
  6 44  1  0
  7 45  1  0
  8 46  1  0
  9 47  1  0
 10 48  1  0
 11 49  1  0
 12 50  1  0
 13 51  1  0
 14 52  1  0
 15 53  1  0
 16 54  1  0
 16 55  1  0
 17 56  1  0
 17 57  1  0
 18 58  1  0
 18 59  1  0
 19 60  1  0
 29 61  1  0
M  END
