
     RDKit          3D

 68 72  0  0  0  0  0  0  0  0999 V2000
   -7.2837   -5.3958   -2.1687 C   0  0  0  0  0  0  0  0  0  0  0  0
    4.0141   -3.1393   -0.1445 C   0  0  0  0  0  0  0  0  0  0  0  0
   -6.5395   -4.5436   -1.1554 C   0  0  0  0  0  0  0  0  0  0  0  0
   -0.3568    5.8814    1.6759 C   0  0  0  0  0  0  0  0  0  0  0  0
   -0.9083    4.6947    2.4503 C   0  0  0  0  0  0  0  0  0  0  0  0
    0.7538    5.4468    0.7177 C   0  0  0  0  0  0  0  0  0  0  0  0
    8.7700   -2.2596   -0.1963 C   0  0  0  0  0  0  0  0  0  0  0  0
   -1.5222    3.6378    1.5248 C   0  0  0  0  0  0  0  0  0  0  0  0
    0.5509    4.0435    0.1354 C   0  0  0  0  0  0  0  0  0  0  0  0
    7.4238   -1.8242   -0.3734 C   0  0  0  0  0  0  0  0  0  0  0  0
   -3.9283   -0.5409   -1.1308 C   0  0  0  0  0  0  0  0  0  0  0  0
    2.8102    0.1935   -0.9751 C   0  0  0  0  0  0  0  0  0  0  0  0
   -4.7369   -1.4646   -1.7926 C   0  0  0  0  0  0  0  0  0  0  0  0
    1.6546    0.9790   -1.0669 C   0  0  0  0  0  0  0  0  0  0  0  0
    9.0967   -2.3796    1.1367 C   0  0  0  0  0  0  0  0  0  0  0  0
   -2.8848    0.3190    1.0116 C   0  0  0  0  0  0  0  0  0  0  0  0
    1.7409   -1.3274    0.5830 C   0  0  0  0  0  0  0  0  0  0  0  0
   -5.1388   -2.5246    0.2929 C   0  0  0  0  0  0  0  0  0  0  0  0
   -1.2029    2.3436   -0.6913 C   0  0  0  0  0  0  0  0  0  0  0  0
   -0.9285    3.6412    0.1012 C   0  0  0  0  0  0  0  0  0  0  0  0
   -3.7578   -0.6564    0.2494 C   0  0  0  0  0  0  0  0  0  0  0  0
    2.8553   -0.9514   -0.1751 C   0  0  0  0  0  0  0  0  0  0  0  0
   -5.3491   -2.4912   -1.0790 C   0  0  0  0  0  0  0  0  0  0  0  0
    0.5716   -0.5599    0.4863 C   0  0  0  0  0  0  0  0  0  0  0  0
    0.5473    0.5785   -0.3097 C   0  0  0  0  0  0  0  0  0  0  0  0
   -1.4288    0.2074    0.6623 C   0  0  0  0  0  0  0  0  0  0  0  0
    6.7662   -1.6364    0.8297 C   0  0  0  0  0  0  0  0  0  0  0  0
   -4.3765   -1.6289    0.9683 N   0  0  0  0  0  0  0  0  0  0  0  0
   -0.6399   -0.7639    1.0826 N   0  0  0  0  0  0  0  0  0  0  0  0
    4.1108   -1.6613   -0.0817 N   0  0  0  0  0  0  0  0  0  0  0  0
   -0.7138    1.1060   -0.1117 N   0  0  0  0  0  0  0  0  0  0  0  0
    4.7093   -1.7317    2.4227 O   0  0  0  0  0  0  0  0  0  0  0  0
    5.2163    0.3656    1.0916 O   0  0  0  0  0  0  0  0  0  0  0  0
   -6.1046   -3.3548   -1.8172 O   0  0  0  0  0  0  0  0  0  0  0  0
    7.7868   -1.9667    2.1611 S   0  0  0  0  0  0  0  0  0  0  0  0
    5.1106   -1.0740    1.1973 S   0  0  0  0  0  6  0  0  0  0  0  0
   -6.6465   -5.6159   -3.0339 H   0  0  0  0  0  0  0  0  0  0  0  0
   -7.6106   -6.3383   -1.7173 H   0  0  0  0  0  0  0  0  0  0  0  0
   -8.1630   -4.8603   -2.5494 H   0  0  0  0  0  0  0  0  0  0  0  0
    4.9954   -3.5771   -0.3473 H   0  0  0  0  0  0  0  0  0  0  0  0
    3.3578   -3.4362   -0.9705 H   0  0  0  0  0  0  0  0  0  0  0  0
    3.6198   -3.5650    0.7832 H   0  0  0  0  0  0  0  0  0  0  0  0
   -7.2192   -4.2967   -0.3301 H   0  0  0  0  0  0  0  0  0  0  0  0
   -5.6751   -5.1052   -0.7755 H   0  0  0  0  0  0  0  0  0  0  0  0
   -1.1683    6.3527    1.1032 H   0  0  0  0  0  0  0  0  0  0  0  0
    0.0252    6.6473    2.3634 H   0  0  0  0  0  0  0  0  0  0  0  0
   -0.0925    4.2328    3.0183 H   0  0  0  0  0  0  0  0  0  0  0  0
   -1.6516    5.0228    3.1840 H   0  0  0  0  0  0  0  0  0  0  0  0
    1.7199    5.4739    1.2371 H   0  0  0  0  0  0  0  0  0  0  0  0
    0.8293    6.1775   -0.0974 H   0  0  0  0  0  0  0  0  0  0  0  0
    9.4647   -2.4621   -1.0033 H   0  0  0  0  0  0  0  0  0  0  0  0
   -2.6046    3.8023    1.4496 H   0  0  0  0  0  0  0  0  0  0  0  0
   -1.3940    2.6685    2.0153 H   0  0  0  0  0  0  0  0  0  0  0  0
    0.9835    4.0187   -0.8692 H   0  0  0  0  0  0  0  0  0  0  0  0
    1.1141    3.3284    0.7451 H   0  0  0  0  0  0  0  0  0  0  0  0
    6.9516   -1.6450   -1.3319 H   0  0  0  0  0  0  0  0  0  0  0  0
   -3.4420    0.2465   -1.6964 H   0  0  0  0  0  0  0  0  0  0  0  0
    3.6969    0.4938   -1.5295 H   0  0  0  0  0  0  0  0  0  0  0  0
   -4.8773   -1.3908   -2.8684 H   0  0  0  0  0  0  0  0  0  0  0  0
    1.6410    1.8669   -1.6876 H   0  0  0  0  0  0  0  0  0  0  0  0
   10.0450   -2.6783    1.5660 H   0  0  0  0  0  0  0  0  0  0  0  0
   -2.9889    0.1242    2.0872 H   0  0  0  0  0  0  0  0  0  0  0  0
   -3.2733    1.3301    0.8599 H   0  0  0  0  0  0  0  0  0  0  0  0
    1.7500   -2.1872    1.2419 H   0  0  0  0  0  0  0  0  0  0  0  0
   -5.5776   -3.2846    0.9331 H   0  0  0  0  0  0  0  0  0  0  0  0
   -0.7689    2.4248   -1.6958 H   0  0  0  0  0  0  0  0  0  0  0  0
   -2.2804    2.2367   -0.8519 H   0  0  0  0  0  0  0  0  0  0  0  0
   -1.4482    4.4330   -0.4600 H   0  0  0  0  0  0  0  0  0  0  0  0
  1  3  1  0
  2 30  1  0
  3 34  1  0
  4  5  1  0
  4  6  1  0
  5  8  1  0
  6  9  1  0
  7 10  1  0
  7 15  2  0
  8 20  1  0
  9 20  1  0
 10 27  2  0
 11 13  2  0
 11 21  1  0
 12 14  2  0
 12 22  1  0
 13 23  1  0
 14 25  1  0
 15 35  1  0
 16 21  1  0
 16 26  1  0
 17 22  2  0
 17 24  1  0
 18 23  2  0
 18 28  1  0
 19 20  1  0
 19 31  1  0
 21 28  2  0
 22 30  1  0
 23 34  1  0
 24 25  2  0
 24 29  1  0
 25 31  1  0
 26 29  2  0
 26 31  1  0
 27 35  1  0
 27 36  1  0
 30 36  1  0
 32 36  2  0
 33 36  2  0
  1 37  1  0
  1 38  1  0
  1 39  1  0
  2 40  1  0
  2 41  1  0
  2 42  1  0
  3 43  1  0
  3 44  1  0
  4 45  1  0
  4 46  1  0
  5 47  1  0
  5 48  1  0
  6 49  1  0
  6 50  1  0
  7 51  1  0
  8 52  1  0
  8 53  1  0
  9 54  1  0
  9 55  1  0
 10 56  1  0
 11 57  1  0
 12 58  1  0
 13 59  1  0
 14 60  1  0
 15 61  1  0
 16 62  1  0
 16 63  1  0
 17 64  1  0
 18 65  1  0
 19 66  1  0
 19 67  1  0
 20 68  1  0
M  END
