
     RDKit          3D

 65 72  0  0  0  0  0  0  0  0999 V2000
   -4.5246   -0.4571   -1.6886 C   0  0  0  0  0  0  0  0  0  0  0  0
   -1.5775   -1.8962    2.6667 C   0  0  0  0  0  0  0  0  0  0  0  0
   -0.4931   -1.0280    1.9897 C   0  0  0  0  0  0  0  0  0  0  0  0
   -2.0774   -3.0474    1.7885 C   0  0  0  0  0  0  0  0  0  0  0  0
    6.0178   -0.6214   -0.2225 C   0  0  0  0  0  0  0  0  0  0  0  0
    4.9383   -0.9334    0.7737 C   0  0  0  0  0  0  0  0  0  0  0  0
   -0.1105    2.9063    2.2202 C   0  0  0  0  0  0  0  0  0  0  0  0
   -1.4349    3.3950    2.2648 C   0  0  0  0  0  0  0  0  0  0  0  0
    0.2558   -1.1861   -1.7868 C   0  0  0  0  0  0  0  0  0  0  0  0
   -0.9924   -1.4089   -2.2511 C   0  0  0  0  0  0  0  0  0  0  0  0
    0.4719    1.8507   -2.0298 C   0  0  0  0  0  0  0  0  0  0  0  0
    1.8842    1.2978   -2.2511 C   0  0  0  0  0  0  0  0  0  0  0  0
    1.5877    1.2937    1.1498 C   0  0  0  0  0  0  0  0  0  0  0  0
    3.7941    0.1242   -1.3453 C   0  0  0  0  0  0  0  0  0  0  0  0
    4.7576    0.2086   -0.1969 C   0  0  0  0  0  0  0  0  0  0  0  0
    0.2938    2.0788    1.1729 C   0  0  0  0  0  0  0  0  0  0  0  0
   -0.5290   -1.1646    0.4621 C   0  0  0  0  0  0  0  0  0  0  0  0
   -2.6229   -2.5814    0.4196 C   0  0  0  0  0  0  0  0  0  0  0  0
   -2.3683    3.0247    1.2857 C   0  0  0  0  0  0  0  0  0  0  0  0
    1.7117    0.2132   -0.0122 C   0  0  0  0  0  0  0  0  0  0  0  0
   -0.6341    1.8411    0.1744 C   0  0  0  0  0  0  0  0  0  0  0  0
   -2.0261   -1.2192    0.0086 C   0  0  0  0  0  0  0  0  0  0  0  0
   -1.9507    2.2259    0.2446 C   0  0  0  0  0  0  0  0  0  0  0  0
   -1.8312    0.8037   -1.5267 C   0  0  0  0  0  0  0  0  0  0  0  0
    0.3163   -0.2721   -0.5445 C   0  0  0  0  0  0  0  0  0  0  0  0
   -0.3818    1.0232   -1.0278 C   0  0  0  0  0  0  0  0  0  0  0  0
   -2.1404   -0.7448   -1.4700 C   0  0  0  0  0  0  0  0  0  0  0  0
    2.5687    0.8647   -1.0347 N   0  0  0  0  0  0  0  0  0  0  0  0
   -2.3818   -3.6216   -0.5211 O   0  0  0  0  0  0  0  0  0  0  0  0
   -3.6702    3.4146    1.3628 O   0  0  0  0  0  0  0  0  0  0  0  0
   -3.3485   -1.1269   -2.1149 O   0  0  0  0  0  0  0  0  0  0  0  0
   -2.7274    1.6473   -0.7258 O   0  0  0  0  0  0  0  0  0  0  0  0
   -4.6107   -0.4294   -0.5995 H   0  0  0  0  0  0  0  0  0  0  0  0
   -4.5590    0.5534   -2.1041 H   0  0  0  0  0  0  0  0  0  0  0  0
   -5.3848   -1.0047   -2.0841 H   0  0  0  0  0  0  0  0  0  0  0  0
   -2.4321   -1.2579    2.9264 H   0  0  0  0  0  0  0  0  0  0  0  0
   -1.1909   -2.2878    3.6146 H   0  0  0  0  0  0  0  0  0  0  0  0
    0.4934   -1.3350    2.3567 H   0  0  0  0  0  0  0  0  0  0  0  0
   -0.6573   -0.0055    2.3262 H   0  0  0  0  0  0  0  0  0  0  0  0
   -2.8647   -3.5990    2.3169 H   0  0  0  0  0  0  0  0  0  0  0  0
   -1.2625   -3.7696    1.6467 H   0  0  0  0  0  0  0  0  0  0  0  0
    6.1684   -1.3156   -1.0414 H   0  0  0  0  0  0  0  0  0  0  0  0
    6.9309   -0.1653    0.1436 H   0  0  0  0  0  0  0  0  0  0  0  0
    5.1179   -0.6856    1.8138 H   0  0  0  0  0  0  0  0  0  0  0  0
    4.3685   -1.8436    0.6273 H   0  0  0  0  0  0  0  0  0  0  0  0
    0.5748    3.1396    3.0317 H   0  0  0  0  0  0  0  0  0  0  0  0
   -1.7296    4.0229    3.1010 H   0  0  0  0  0  0  0  0  0  0  0  0
    1.1415   -1.6347   -2.2207 H   0  0  0  0  0  0  0  0  0  0  0  0
   -1.2072   -2.0415   -3.1052 H   0  0  0  0  0  0  0  0  0  0  0  0
   -0.0133    1.8871   -3.0132 H   0  0  0  0  0  0  0  0  0  0  0  0
    0.5543    2.8980   -1.7074 H   0  0  0  0  0  0  0  0  0  0  0  0
    2.4807    2.0842   -2.7315 H   0  0  0  0  0  0  0  0  0  0  0  0
    1.8375    0.4843   -2.9852 H   0  0  0  0  0  0  0  0  0  0  0  0
    2.4295    1.9979    1.1267 H   0  0  0  0  0  0  0  0  0  0  0  0
    1.6748    0.7600    2.1047 H   0  0  0  0  0  0  0  0  0  0  0  0
    3.5736   -0.9143   -1.6217 H   0  0  0  0  0  0  0  0  0  0  0  0
    4.2971    0.5827   -2.2064 H   0  0  0  0  0  0  0  0  0  0  0  0
    4.8600    1.2236    0.1738 H   0  0  0  0  0  0  0  0  0  0  0  0
   -0.1018   -2.1741    0.3250 H   0  0  0  0  0  0  0  0  0  0  0  0
   -3.7114   -2.4775    0.4922 H   0  0  0  0  0  0  0  0  0  0  0  0
    2.2280   -0.6566    0.4094 H   0  0  0  0  0  0  0  0  0  0  0  0
   -2.5825   -0.4901    0.6137 H   0  0  0  0  0  0  0  0  0  0  0  0
   -1.9731    1.1409   -2.5617 H   0  0  0  0  0  0  0  0  0  0  0  0
   -1.4479   -3.5886   -0.7855 H   0  0  0  0  0  0  0  0  0  0  0  0
   -3.7767    3.9975    2.1308 H   0  0  0  0  0  0  0  0  0  0  0  0
  1 31  1  0
  2  3  1  0
  2  4  1  0
  3 17  1  0
  4 18  1  0
  5  6  1  0
  5 15  1  0
  6 15  1  0
  7  8  2  0
  7 16  1  0
  8 19  1  0
  9 10  2  0
  9 25  1  0
 10 27  1  0
 11 12  1  0
 11 26  1  0
 12 28  1  0
 13 16  1  0
 13 20  1  0
 14 15  1  0
 14 28  1  0
 16 21  2  0
 17 22  1  0
 17 25  1  0
 18 22  1  0
 18 29  1  0
 19 23  2  0
 19 30  1  0
 20 25  1  0
 20 28  1  0
 21 23  1  0
 21 26  1  0
 22 27  1  0
 23 32  1  0
 24 26  1  0
 24 27  1  0
 24 32  1  0
 25 26  1  0
 27 31  1  0
  1 33  1  0
  1 34  1  0
  1 35  1  0
  2 36  1  0
  2 37  1  0
  3 38  1  0
  3 39  1  0
  4 40  1  0
  4 41  1  0
  5 42  1  0
  5 43  1  0
  6 44  1  0
  6 45  1  0
  7 46  1  0
  8 47  1  0
  9 48  1  0
 10 49  1  0
 11 50  1  0
 11 51  1  0
 12 52  1  0
 12 53  1  0
 13 54  1  0
 13 55  1  0
 14 56  1  0
 14 57  1  0
 15 58  1  0
 17 59  1  0
 18 60  1  0
 20 61  1  0
 22 62  1  0
 24 63  1  0
 29 64  1  0
 30 65  1  0
M  END
