
     RDKit          3D

 70 72  0  0  0  0  0  0  0  0999 V2000
    5.9715   -3.5449   -2.0879 C   0  0  0  0  0  0  0  0  0  0  0  0
   -7.5196    0.0597    1.5140 C   0  0  0  0  0  0  0  0  0  0  0  0
   -6.4963   -2.1281    0.7948 C   0  0  0  0  0  0  0  0  0  0  0  0
   -3.1199    0.5553    4.2515 C   0  0  0  0  0  0  0  0  0  0  0  0
   -4.4028    0.1818   -3.0016 C   0  0  0  0  0  0  0  0  0  0  0  0
    4.8881   -2.5200   -1.7814 C   0  0  0  0  0  0  0  0  0  0  0  0
    6.0294    3.4314    0.7785 C   0  0  0  0  0  0  0  0  0  0  0  0
    6.7052    2.7414   -0.2199 C   0  0  0  0  0  0  0  0  0  0  0  0
    4.8532    2.9029    1.2983 C   0  0  0  0  0  0  0  0  0  0  0  0
    6.1991    1.5280   -0.7001 C   0  0  0  0  0  0  0  0  0  0  0  0
    4.3512    1.6880    0.8135 C   0  0  0  0  0  0  0  0  0  0  0  0
   -1.1563    1.6767    0.7025 C   0  0  0  0  0  0  0  0  0  0  0  0
    2.1896    0.7002   -1.3012 C   0  0  0  0  0  0  0  0  0  0  0  0
    2.4398   -1.1724    0.4200 C   0  0  0  0  0  0  0  0  0  0  0  0
   -0.0350    0.6425    0.9179 C   0  0  0  0  0  0  0  0  0  0  0  0
    0.7151    0.3041   -1.4169 C   0  0  0  0  0  0  0  0  0  0  0  0
    0.9541   -1.4725    0.2096 C   0  0  0  0  0  0  0  0  0  0  0  0
   -3.1709    0.8252   -0.5487 C   0  0  0  0  0  0  0  0  0  0  0  0
   -4.4991    0.1981    1.8089 C   0  0  0  0  0  0  0  0  0  0  0  0
   -6.5501   -0.6205    0.5399 C   0  0  0  0  0  0  0  0  0  0  0  0
   -2.5460    1.0747    0.6855 C   0  0  0  0  0  0  0  0  0  0  0  0
    5.0098    0.9741   -0.1963 C   0  0  0  0  0  0  0  0  0  0  0  0
    3.0325   -0.4982   -0.8272 C   0  0  0  0  0  0  0  0  0  0  0  0
   -5.1455   -0.0249    0.5751 C   0  0  0  0  0  0  0  0  0  0  0  0
   -3.2122    0.7415    1.8741 C   0  0  0  0  0  0  0  0  0  0  0  0
   -4.4554    0.2748   -0.6151 C   0  0  0  0  0  0  0  0  0  0  0  0
    5.4317   -1.2873   -1.0615 C   0  0  0  0  0  0  0  0  0  0  0  0
    0.1631   -0.3036   -0.1998 N   0  0  0  0  0  0  0  0  0  0  0  0
    4.5016   -0.2689   -0.7356 N   0  0  0  0  0  0  0  0  0  0  0  0
    6.6355   -1.2324   -0.7947 O   0  0  0  0  0  0  0  0  0  0  0  0
   -2.5279    0.9925    3.0350 O   0  0  0  0  0  0  0  0  0  0  0  0
   -5.1144   -0.0030   -1.7851 O   0  0  0  0  0  0  0  0  0  0  0  0
    6.7559   -3.1143   -2.7188 H   0  0  0  0  0  0  0  0  0  0  0  0
    5.5437   -4.4041   -2.6139 H   0  0  0  0  0  0  0  0  0  0  0  0
    6.4397   -3.9078   -1.1673 H   0  0  0  0  0  0  0  0  0  0  0  0
   -7.2673   -0.1425    2.5605 H   0  0  0  0  0  0  0  0  0  0  0  0
   -8.5405   -0.3037    1.3515 H   0  0  0  0  0  0  0  0  0  0  0  0
   -7.5242    1.1459    1.3695 H   0  0  0  0  0  0  0  0  0  0  0  0
   -7.4958   -2.5697    0.7183 H   0  0  0  0  0  0  0  0  0  0  0  0
   -5.8531   -2.6263    0.0605 H   0  0  0  0  0  0  0  0  0  0  0  0
   -6.1022   -2.3574    1.7913 H   0  0  0  0  0  0  0  0  0  0  0  0
   -4.0489    1.0984    4.4543 H   0  0  0  0  0  0  0  0  0  0  0  0
   -3.2844   -0.5277    4.2458 H   0  0  0  0  0  0  0  0  0  0  0  0
   -2.4209    0.7808    5.0626 H   0  0  0  0  0  0  0  0  0  0  0  0
   -4.1582    1.2374   -3.1590 H   0  0  0  0  0  0  0  0  0  0  0  0
   -5.0566   -0.1318   -3.8215 H   0  0  0  0  0  0  0  0  0  0  0  0
   -3.5046   -0.4443   -3.0349 H   0  0  0  0  0  0  0  0  0  0  0  0
    4.1305   -3.0042   -1.1579 H   0  0  0  0  0  0  0  0  0  0  0  0
    4.4390   -2.2027   -2.7289 H   0  0  0  0  0  0  0  0  0  0  0  0
    6.4224    4.3720    1.1548 H   0  0  0  0  0  0  0  0  0  0  0  0
    7.6286    3.1407   -0.6306 H   0  0  0  0  0  0  0  0  0  0  0  0
    4.3214    3.4310    2.0849 H   0  0  0  0  0  0  0  0  0  0  0  0
    6.7496    1.0339   -1.4975 H   0  0  0  0  0  0  0  0  0  0  0  0
    3.4473    1.3164    1.2767 H   0  0  0  0  0  0  0  0  0  0  0  0
   -0.9867    2.2579   -0.2109 H   0  0  0  0  0  0  0  0  0  0  0  0
   -1.1084    2.4209    1.5085 H   0  0  0  0  0  0  0  0  0  0  0  0
    2.5522    1.0388   -2.2796 H   0  0  0  0  0  0  0  0  0  0  0  0
    2.2665    1.5616   -0.6357 H   0  0  0  0  0  0  0  0  0  0  0  0
    2.5651   -0.5564    1.3147 H   0  0  0  0  0  0  0  0  0  0  0  0
    2.9682   -2.1097    0.6320 H   0  0  0  0  0  0  0  0  0  0  0  0
   -0.2754    0.0742    1.8255 H   0  0  0  0  0  0  0  0  0  0  0  0
    0.8933    1.1814    1.1379 H   0  0  0  0  0  0  0  0  0  0  0  0
    0.1247    1.1709   -1.7306 H   0  0  0  0  0  0  0  0  0  0  0  0
    0.6074   -0.4169   -2.2383 H   0  0  0  0  0  0  0  0  0  0  0  0
    0.5342   -1.9214    1.1184 H   0  0  0  0  0  0  0  0  0  0  0  0
    0.8537   -2.2456   -0.5639 H   0  0  0  0  0  0  0  0  0  0  0  0
   -2.6196    1.0669   -1.4514 H   0  0  0  0  0  0  0  0  0  0  0  0
   -5.0261   -0.0661    2.7189 H   0  0  0  0  0  0  0  0  0  0  0  0
   -6.9836   -0.4704   -0.4561 H   0  0  0  0  0  0  0  0  0  0  0  0
    2.8934   -1.2227   -1.6362 H   0  0  0  0  0  0  0  0  0  0  0  0
  1  6  1  0
  2 20  1  0
  3 20  1  0
  4 31  1  0
  5 32  1  0
  6 27  1  0
  7  8  2  0
  7  9  1  0
  8 10  1  0
  9 11  2  0
 10 22  2  0
 11 22  1  0
 12 15  1  0
 12 21  1  0
 13 16  1  0
 13 23  1  0
 14 17  1  0
 14 23  1  0
 15 28  1  0
 16 28  1  0
 17 28  1  0
 18 21  2  0
 18 26  1  0
 19 24  1  0
 19 25  2  0
 20 24  1  0
 21 25  1  0
 22 29  1  0
 23 29  1  0
 24 26  2  0
 25 31  1  0
 26 32  1  0
 27 29  1  0
 27 30  2  0
  1 33  1  0
  1 34  1  0
  1 35  1  0
  2 36  1  0
  2 37  1  0
  2 38  1  0
  3 39  1  0
  3 40  1  0
  3 41  1  0
  4 42  1  0
  4 43  1  0
  4 44  1  0
  5 45  1  0
  5 46  1  0
  5 47  1  0
  6 48  1  0
  6 49  1  0
  7 50  1  0
  8 51  1  0
  9 52  1  0
 10 53  1  0
 11 54  1  0
 12 55  1  0
 12 56  1  0
 13 57  1  0
 13 58  1  0
 14 59  1  0
 14 60  1  0
 15 61  1  0
 15 62  1  0
 16 63  1  0
 16 64  1  0
 17 65  1  0
 17 66  1  0
 18 67  1  0
 19 68  1  0
 20 69  1  0
 23 70  1  0
M  END
