
     RDKit          3D

 65 68  0  0  0  0  0  0  0  0999 V2000
    7.9221    3.0696    0.1475 C   0  0  0  0  0  0  0  0  0  0  0  0
   -4.2712    3.8613   -0.5658 C   0  0  0  0  0  0  0  0  0  0  0  0
   -8.3623   -1.9082    0.4584 C   0  0  0  0  0  0  0  0  0  0  0  0
    7.7290    2.4349    1.3726 C   0  0  0  0  0  0  0  0  0  0  0  0
    7.6459    2.3911   -1.0381 C   0  0  0  0  0  0  0  0  0  0  0  0
   -3.9855    3.4919    0.7478 C   0  0  0  0  0  0  0  0  0  0  0  0
   -4.5624    2.8849   -1.5162 C   0  0  0  0  0  0  0  0  0  0  0  0
   -8.0173   -0.9261    1.3844 C   0  0  0  0  0  0  0  0  0  0  0  0
   -7.4064   -2.3884   -0.4342 C   0  0  0  0  0  0  0  0  0  0  0  0
    5.0864   -1.1601    0.9201 C   0  0  0  0  0  0  0  0  0  0  0  0
    7.2583    1.1207    1.4138 C   0  0  0  0  0  0  0  0  0  0  0  0
    7.1711    1.0783   -0.9995 C   0  0  0  0  0  0  0  0  0  0  0  0
    6.4643   -0.9902    0.2667 C   0  0  0  0  0  0  0  0  0  0  0  0
   -3.9944    2.1440    1.1151 C   0  0  0  0  0  0  0  0  0  0  0  0
   -4.5710    1.5374   -1.1524 C   0  0  0  0  0  0  0  0  0  0  0  0
   -6.7132   -0.4281    1.4203 C   0  0  0  0  0  0  0  0  0  0  0  0
   -6.1028   -1.8897   -0.4006 C   0  0  0  0  0  0  0  0  0  0  0  0
    3.9676   -0.4549    0.1362 C   0  0  0  0  0  0  0  0  0  0  0  0
    1.6138    0.1878    0.1112 C   0  0  0  0  0  0  0  0  0  0  0  0
    2.2402   -2.1167    0.6225 C   0  0  0  0  0  0  0  0  0  0  0  0
    0.8155   -0.4322   -1.0609 C   0  0  0  0  0  0  0  0  0  0  0  0
    0.7173   -2.3314    0.4809 C   0  0  0  0  0  0  0  0  0  0  0  0
   -1.2398   -1.7932   -0.9087 C   0  0  0  0  0  0  0  0  0  0  0  0
   -2.0719   -0.9823    0.1000 C   0  0  0  0  0  0  0  0  0  0  0  0
    6.9697    0.4310    0.2277 C   0  0  0  0  0  0  0  0  0  0  0  0
   -4.2911    1.1498    0.1688 C   0  0  0  0  0  0  0  0  0  0  0  0
   -5.7336   -0.9002    0.5264 C   0  0  0  0  0  0  0  0  0  0  0  0
   -4.3217   -0.3178    0.5732 C   0  0  0  0  0  0  0  0  0  0  0  0
    2.6354   -0.6919    0.7198 N   0  0  0  0  0  0  0  0  0  0  0  0
    0.2184   -1.7470   -0.7716 N   0  0  0  0  0  0  0  0  0  0  0  0
   -3.4469   -1.0679   -0.2854 O   0  0  0  0  0  0  0  0  0  0  0  0
    8.2910    4.0914    0.1172 H   0  0  0  0  0  0  0  0  0  0  0  0
   -4.2711    4.9111   -0.8502 H   0  0  0  0  0  0  0  0  0  0  0  0
   -9.3770   -2.2922    0.4259 H   0  0  0  0  0  0  0  0  0  0  0  0
    7.9461    2.9628    2.2974 H   0  0  0  0  0  0  0  0  0  0  0  0
    7.7988    2.8847   -1.9949 H   0  0  0  0  0  0  0  0  0  0  0  0
   -3.7590    4.2550    1.4882 H   0  0  0  0  0  0  0  0  0  0  0  0
   -4.7876    3.1715   -2.5403 H   0  0  0  0  0  0  0  0  0  0  0  0
   -8.7627   -0.5442    2.0772 H   0  0  0  0  0  0  0  0  0  0  0  0
   -7.6756   -3.1505   -1.1614 H   0  0  0  0  0  0  0  0  0  0  0  0
    5.1022   -0.7857    1.9513 H   0  0  0  0  0  0  0  0  0  0  0  0
    4.8871   -2.2362    0.9785 H   0  0  0  0  0  0  0  0  0  0  0  0
    7.1196    0.6372    2.3790 H   0  0  0  0  0  0  0  0  0  0  0  0
    6.9622    0.5641   -1.9355 H   0  0  0  0  0  0  0  0  0  0  0  0
    6.4328   -1.4054   -0.7492 H   0  0  0  0  0  0  0  0  0  0  0  0
    7.1988   -1.5966    0.8134 H   0  0  0  0  0  0  0  0  0  0  0  0
   -3.7747    1.8776    2.1464 H   0  0  0  0  0  0  0  0  0  0  0  0
   -4.8044    0.7829   -1.9016 H   0  0  0  0  0  0  0  0  0  0  0  0
   -6.4680    0.3482    2.1442 H   0  0  0  0  0  0  0  0  0  0  0  0
   -5.3734   -2.2772   -1.1097 H   0  0  0  0  0  0  0  0  0  0  0  0
    3.9889   -0.7617   -0.9177 H   0  0  0  0  0  0  0  0  0  0  0  0
    4.1749    0.6223    0.1595 H   0  0  0  0  0  0  0  0  0  0  0  0
    0.9014    0.4493    0.9055 H   0  0  0  0  0  0  0  0  0  0  0  0
    2.0466    1.1448   -0.2068 H   0  0  0  0  0  0  0  0  0  0  0  0
    2.5856   -2.6371    1.5236 H   0  0  0  0  0  0  0  0  0  0  0  0
    2.7248   -2.6022   -0.2362 H   0  0  0  0  0  0  0  0  0  0  0  0
    0.0633    0.2920   -1.3978 H   0  0  0  0  0  0  0  0  0  0  0  0
    1.4991   -0.5666   -1.9083 H   0  0  0  0  0  0  0  0  0  0  0  0
    0.5117   -3.4088    0.4826 H   0  0  0  0  0  0  0  0  0  0  0  0
    0.2195   -1.9029    1.3594 H   0  0  0  0  0  0  0  0  0  0  0  0
   -1.5093   -1.4770   -1.9255 H   0  0  0  0  0  0  0  0  0  0  0  0
   -1.5696   -2.8400   -0.8654 H   0  0  0  0  0  0  0  0  0  0  0  0
   -1.7536    0.0650    0.1044 H   0  0  0  0  0  0  0  0  0  0  0  0
   -1.9604   -1.3943    1.1087 H   0  0  0  0  0  0  0  0  0  0  0  0
   -3.9716   -0.4374    1.6081 H   0  0  0  0  0  0  0  0  0  0  0  0
  1  4  2  0
  1  5  1  0
  2  6  2  0
  2  7  1  0
  3  8  2  0
  3  9  1  0
  4 11  1  0
  5 12  2  0
  6 14  1  0
  7 15  2  0
  8 16  1  0
  9 17  2  0
 10 13  1  0
 10 18  1  0
 11 25  2  0
 12 25  1  0
 13 25  1  0
 14 26  2  0
 15 26  1  0
 16 27  2  0
 17 27  1  0
 18 29  1  0
 19 21  1  0
 19 29  1  0
 20 22  1  0
 20 29  1  0
 21 30  1  0
 22 30  1  0
 23 24  1  0
 23 30  1  0
 24 31  1  0
 26 28  1  0
 27 28  1  0
 28 31  1  0
  1 32  1  0
  2 33  1  0
  3 34  1  0
  4 35  1  0
  5 36  1  0
  6 37  1  0
  7 38  1  0
  8 39  1  0
  9 40  1  0
 10 41  1  0
 10 42  1  0
 11 43  1  0
 12 44  1  0
 13 45  1  0
 13 46  1  0
 14 47  1  0
 15 48  1  0
 16 49  1  0
 17 50  1  0
 18 51  1  0
 18 52  1  0
 19 53  1  0
 19 54  1  0
 20 55  1  0
 20 56  1  0
 21 57  1  0
 21 58  1  0
 22 59  1  0
 22 60  1  0
 23 61  1  0
 23 62  1  0
 24 63  1  0
 24 64  1  0
 28 65  1  0
M  END
