
     RDKit          3D

 72 74  0  0  0  0  0  0  0  0999 V2000
   -1.3450   -5.6894   -0.9061 C   0  0  0  0  0  0  0  0  0  0  0  0
    3.2402   -3.2279   -1.0297 C   0  0  0  0  0  0  0  0  0  0  0  0
    6.4255   -1.6389    1.4176 C   0  0  0  0  0  0  0  0  0  0  0  0
   -2.6757   -2.5831   -2.2065 C   0  0  0  0  0  0  0  0  0  0  0  0
   -3.3439   -0.1647    1.8557 C   0  0  0  0  0  0  0  0  0  0  0  0
   -3.7620    6.3882    2.4670 C   0  0  0  0  0  0  0  0  0  0  0  0
   -1.6679   -4.7056   -0.0558 C   0  0  0  0  0  0  0  0  0  0  0  0
    3.4810   -2.3140    0.1617 C   0  0  0  0  0  0  0  0  0  0  0  0
    5.9042   -1.7074   -0.0107 C   0  0  0  0  0  0  0  0  0  0  0  0
   -1.2118    5.5000   -0.7843 C   0  0  0  0  0  0  0  0  0  0  0  0
   -0.9960    4.1588   -1.1029 C   0  0  0  0  0  0  0  0  0  0  0  0
   -2.0343    5.8433    0.2882 C   0  0  0  0  0  0  0  0  0  0  0  0
    0.9055    1.6024    0.5205 C   0  0  0  0  0  0  0  0  0  0  0  0
    0.8015    0.6234   -1.6883 C   0  0  0  0  0  0  0  0  0  0  0  0
    2.2425    1.2155    0.6323 C   0  0  0  0  0  0  0  0  0  0  0  0
    2.1366    0.2310   -1.5808 C   0  0  0  0  0  0  0  0  0  0  0  0
   -0.8912   -3.4339    0.1164 C   0  0  0  0  0  0  0  0  0  0  0  0
   -2.4243    3.4999    0.7177 C   0  0  0  0  0  0  0  0  0  0  0  0
   -1.2039   -1.2340    1.0403 C   0  0  0  0  0  0  0  0  0  0  0  0
   -2.7729   -0.3200   -1.1576 C   0  0  0  0  0  0  0  0  0  0  0  0
   -1.9587   -1.6490   -1.2215 C   0  0  0  0  0  0  0  0  0  0  0  0
   -2.0168    0.0901    1.1135 C   0  0  0  0  0  0  0  0  0  0  0  0
    0.1553    1.2878   -0.6292 C   0  0  0  0  0  0  0  0  0  0  0  0
    2.8409    0.5045   -0.4080 C   0  0  0  0  0  0  0  0  0  0  0  0
   -1.5983    3.1282   -0.3554 C   0  0  0  0  0  0  0  0  0  0  0  0
   -2.6442    4.8440    1.0451 C   0  0  0  0  0  0  0  0  0  0  0  0
   -1.3261    1.6652   -0.7540 C   0  0  0  0  0  0  0  0  0  0  0  0
    4.2423    0.0663   -0.2693 C   0  0  0  0  0  0  0  0  0  0  0  0
    4.5038   -1.2972   -0.1093 N   0  0  0  0  0  0  0  0  0  0  0  0
   -1.7677   -2.2527    0.1236 N   0  0  0  0  0  0  0  0  0  0  0  0
   -2.3032    0.6947   -0.2001 N   0  0  0  0  0  0  0  0  0  0  0  0
    5.1109    0.9342   -0.3012 O   0  0  0  0  0  0  0  0  0  0  0  0
   -3.4684    5.0417    2.1194 O   0  0  0  0  0  0  0  0  0  0  0  0
   -0.4798   -5.6214   -1.5568 H   0  0  0  0  0  0  0  0  0  0  0  0
   -1.9564   -6.5845   -0.9728 H   0  0  0  0  0  0  0  0  0  0  0  0
    4.1518   -3.7669   -1.3098 H   0  0  0  0  0  0  0  0  0  0  0  0
    2.4716   -3.9704   -0.7905 H   0  0  0  0  0  0  0  0  0  0  0  0
    2.9070   -2.6633   -1.9052 H   0  0  0  0  0  0  0  0  0  0  0  0
    7.4819   -1.9196    1.4482 H   0  0  0  0  0  0  0  0  0  0  0  0
    6.3250   -0.6299    1.8304 H   0  0  0  0  0  0  0  0  0  0  0  0
    5.8751   -2.3235    2.0718 H   0  0  0  0  0  0  0  0  0  0  0  0
   -2.9291   -2.0530   -3.1321 H   0  0  0  0  0  0  0  0  0  0  0  0
   -2.0404   -3.4231   -2.4979 H   0  0  0  0  0  0  0  0  0  0  0  0
   -3.6072   -2.9740   -1.7833 H   0  0  0  0  0  0  0  0  0  0  0  0
   -3.9512   -0.9424    1.3811 H   0  0  0  0  0  0  0  0  0  0  0  0
   -3.9495    0.7464    1.9119 H   0  0  0  0  0  0  0  0  0  0  0  0
   -3.1447   -0.4868    2.8847 H   0  0  0  0  0  0  0  0  0  0  0  0
   -2.8547    6.9296    2.7562 H   0  0  0  0  0  0  0  0  0  0  0  0
   -4.4283    6.3715    3.3355 H   0  0  0  0  0  0  0  0  0  0  0  0
   -4.2882    6.8997    1.6533 H   0  0  0  0  0  0  0  0  0  0  0  0
   -2.5450   -4.8238    0.5763 H   0  0  0  0  0  0  0  0  0  0  0  0
    2.5373   -1.8452    0.4529 H   0  0  0  0  0  0  0  0  0  0  0  0
    3.8079   -2.9050    1.0241 H   0  0  0  0  0  0  0  0  0  0  0  0
    6.5147   -1.0566   -0.6468 H   0  0  0  0  0  0  0  0  0  0  0  0
    6.0055   -2.7242   -0.4017 H   0  0  0  0  0  0  0  0  0  0  0  0
   -0.7360    6.2797   -1.3744 H   0  0  0  0  0  0  0  0  0  0  0  0
   -0.3471    3.9184   -1.9434 H   0  0  0  0  0  0  0  0  0  0  0  0
   -2.1764    6.8961    0.5058 H   0  0  0  0  0  0  0  0  0  0  0  0
    0.4486    2.1556    1.3399 H   0  0  0  0  0  0  0  0  0  0  0  0
    0.2630    0.4045   -2.6077 H   0  0  0  0  0  0  0  0  0  0  0  0
    2.8116    1.4644    1.5246 H   0  0  0  0  0  0  0  0  0  0  0  0
    2.6253   -0.2771   -2.4078 H   0  0  0  0  0  0  0  0  0  0  0  0
   -0.0907   -3.3359   -0.6269 H   0  0  0  0  0  0  0  0  0  0  0  0
   -0.3895   -3.5376    1.0882 H   0  0  0  0  0  0  0  0  0  0  0  0
   -2.9233    2.7442    1.3155 H   0  0  0  0  0  0  0  0  0  0  0  0
   -1.1598   -1.6540    2.0542 H   0  0  0  0  0  0  0  0  0  0  0  0
   -0.1685   -1.0225    0.7538 H   0  0  0  0  0  0  0  0  0  0  0  0
   -3.8101   -0.5656   -0.8903 H   0  0  0  0  0  0  0  0  0  0  0  0
   -2.8549    0.1104   -2.1648 H   0  0  0  0  0  0  0  0  0  0  0  0
   -0.9779   -1.4211   -1.6513 H   0  0  0  0  0  0  0  0  0  0  0  0
   -1.4672    0.7986    1.7425 H   0  0  0  0  0  0  0  0  0  0  0  0
   -1.5282    1.7071   -1.8356 H   0  0  0  0  0  0  0  0  0  0  0  0
  1  7  2  3
  2  8  1  0
  3  9  1  0
  4 21  1  0
  5 22  1  0
  6 33  1  0
  7 17  1  0
  8 29  1  0
  9 29  1  0
 10 11  2  0
 10 12  1  0
 11 25  1  0
 12 26  2  0
 13 15  2  0
 13 23  1  0
 14 16  1  0
 14 23  2  0
 15 24  1  0
 16 24  2  0
 17 30  1  0
 18 25  2  0
 18 26  1  0
 19 22  1  0
 19 30  1  0
 20 21  1  0
 20 31  1  0
 21 30  1  0
 22 31  1  0
 23 27  1  0
 24 28  1  0
 25 27  1  0
 26 33  1  0
 27 31  1  0
 28 29  1  0
 28 32  2  0
  1 34  1  0
  1 35  1  0
  2 36  1  0
  2 37  1  0
  2 38  1  0
  3 39  1  0
  3 40  1  0
  3 41  1  0
  4 42  1  0
  4 43  1  0
  4 44  1  0
  5 45  1  0
  5 46  1  0
  5 47  1  0
  6 48  1  0
  6 49  1  0
  6 50  1  0
  7 51  1  0
  8 52  1  0
  8 53  1  0
  9 54  1  0
  9 55  1  0
 10 56  1  0
 11 57  1  0
 12 58  1  0
 13 59  1  0
 14 60  1  0
 15 61  1  0
 16 62  1  0
 17 63  1  0
 17 64  1  0
 18 65  1  0
 19 66  1  0
 19 67  1  0
 20 68  1  0
 20 69  1  0
 21 70  1  0
 22 71  1  0
 27 72  1  0
M  END
