
     RDKit          3D

 75 78  0  0  0  0  0  0  0  0999 V2000
    0.6397   -2.7376   -3.5142 C   0  0  0  0  0  0  0  0  0  0  0  0
    3.0929   -3.0064   -3.1682 C   0  0  0  0  0  0  0  0  0  0  0  0
    1.4889   -4.0122   -1.5352 C   0  0  0  0  0  0  0  0  0  0  0  0
   -7.0271    1.8916   -1.7643 C   0  0  0  0  0  0  0  0  0  0  0  0
    5.1955    3.1539    1.7896 C   0  0  0  0  0  0  0  0  0  0  0  0
   -7.1140    2.4104   -0.3317 C   0  0  0  0  0  0  0  0  0  0  0  0
   -5.7044    1.1812   -2.0363 C   0  0  0  0  0  0  0  0  0  0  0  0
    6.3810    2.2275    2.0167 C   0  0  0  0  0  0  0  0  0  0  0  0
    4.7429    3.1487    0.3294 C   0  0  0  0  0  0  0  0  0  0  0  0
   -1.0362   -1.6519    3.4599 C   0  0  0  0  0  0  0  0  0  0  0  0
   -2.3081   -1.2541    3.8626 C   0  0  0  0  0  0  0  0  0  0  0  0
   -6.8351    1.3066    0.6866 C   0  0  0  0  0  0  0  0  0  0  0  0
   -5.4323    0.0835   -1.0096 C   0  0  0  0  0  0  0  0  0  0  0  0
    6.0581    0.7752    1.6550 C   0  0  0  0  0  0  0  0  0  0  0  0
    4.9809    1.8157   -0.3850 C   0  0  0  0  0  0  0  0  0  0  0  0
   -0.5099   -1.2289    2.2339 C   0  0  0  0  0  0  0  0  0  0  0  0
   -3.0877   -0.4165    3.0601 C   0  0  0  0  0  0  0  0  0  0  0  0
   -4.3105    1.5003    0.8227 C   0  0  0  0  0  0  0  0  0  0  0  0
    5.0858   -0.7136   -0.1401 C   0  0  0  0  0  0  0  0  0  0  0  0
   -5.4956    0.5895    0.4426 C   0  0  0  0  0  0  0  0  0  0  0  0
    4.9570    0.6315    0.5896 C   0  0  0  0  0  0  0  0  0  0  0  0
   -1.2854   -0.3999    1.3962 C   0  0  0  0  0  0  0  0  0  0  0  0
   -2.5471   -0.0024    1.8335 C   0  0  0  0  0  0  0  0  0  0  0  0
   -1.1199    0.2185    0.1163 C   0  0  0  0  0  0  0  0  0  0  0  0
    1.7655   -1.4514   -1.6506 C   0  0  0  0  0  0  0  0  0  0  0  0
    0.0188    0.1001   -0.8085 C   0  0  0  0  0  0  0  0  0  0  0  0
    2.8559   -1.3981   -0.5685 C   0  0  0  0  0  0  0  0  0  0  0  0
    1.7490   -2.7942   -2.4420 C   0  0  0  0  0  0  0  0  0  0  0  0
    0.4922   -1.1899   -0.9720 N   0  0  0  0  0  0  0  0  0  0  0  0
   -2.1896    0.9723   -0.1963 N   0  0  0  0  0  0  0  0  0  0  0  0
   -3.0312    0.8091    0.8387 N   0  0  0  0  0  0  0  0  0  0  0  0
    0.5085    1.0564   -1.4053 O   0  0  0  0  0  0  0  0  0  0  0  0
    2.6963   -1.7687    0.5905 O   0  0  0  0  0  0  0  0  0  0  0  0
    4.0128   -0.8906   -1.0773 O   0  0  0  0  0  0  0  0  0  0  0  0
    0.6411   -3.6425   -4.1333 H   0  0  0  0  0  0  0  0  0  0  0  0
    0.7801   -1.8785   -4.1799 H   0  0  0  0  0  0  0  0  0  0  0  0
   -0.3551   -2.6551   -3.0631 H   0  0  0  0  0  0  0  0  0  0  0  0
    3.3446   -2.1434   -3.7948 H   0  0  0  0  0  0  0  0  0  0  0  0
    3.0557   -3.8884   -3.8183 H   0  0  0  0  0  0  0  0  0  0  0  0
    3.9149   -3.1647   -2.4625 H   0  0  0  0  0  0  0  0  0  0  0  0
    2.2615   -4.1168   -0.7665 H   0  0  0  0  0  0  0  0  0  0  0  0
    1.4866   -4.9398   -2.1203 H   0  0  0  0  0  0  0  0  0  0  0  0
    0.5177   -3.9463   -1.0349 H   0  0  0  0  0  0  0  0  0  0  0  0
   -7.1504    2.7244   -2.4662 H   0  0  0  0  0  0  0  0  0  0  0  0
   -7.8561    1.1962   -1.9478 H   0  0  0  0  0  0  0  0  0  0  0  0
    4.3628    2.8385    2.4315 H   0  0  0  0  0  0  0  0  0  0  0  0
    5.4501    4.1766    2.0910 H   0  0  0  0  0  0  0  0  0  0  0  0
   -8.1130    2.8254   -0.1548 H   0  0  0  0  0  0  0  0  0  0  0  0
   -6.4040    3.2344   -0.1940 H   0  0  0  0  0  0  0  0  0  0  0  0
   -4.8866    1.9103   -2.0316 H   0  0  0  0  0  0  0  0  0  0  0  0
   -5.7274    0.7423   -3.0403 H   0  0  0  0  0  0  0  0  0  0  0  0
    7.2254    2.5727    1.4070 H   0  0  0  0  0  0  0  0  0  0  0  0
    6.7093    2.2820    3.0606 H   0  0  0  0  0  0  0  0  0  0  0  0
    5.2632    3.9406   -0.2232 H   0  0  0  0  0  0  0  0  0  0  0  0
    3.6762    3.4025    0.2919 H   0  0  0  0  0  0  0  0  0  0  0  0
   -0.4390   -2.2912    4.1065 H   0  0  0  0  0  0  0  0  0  0  0  0
   -2.6973   -1.5925    4.8207 H   0  0  0  0  0  0  0  0  0  0  0  0
   -7.6451    0.5673    0.6329 H   0  0  0  0  0  0  0  0  0  0  0  0
   -6.8640    1.7249    1.6999 H   0  0  0  0  0  0  0  0  0  0  0  0
   -4.4660   -0.3874   -1.2190 H   0  0  0  0  0  0  0  0  0  0  0  0
   -6.1858   -0.7056   -1.1363 H   0  0  0  0  0  0  0  0  0  0  0  0
    5.7375    0.2395    2.5580 H   0  0  0  0  0  0  0  0  0  0  0  0
    6.9850    0.2872    1.3277 H   0  0  0  0  0  0  0  0  0  0  0  0
    5.9550    1.8479   -0.8908 H   0  0  0  0  0  0  0  0  0  0  0  0
    4.2275    1.6975   -1.1723 H   0  0  0  0  0  0  0  0  0  0  0  0
    0.4963   -1.5305    1.9552 H   0  0  0  0  0  0  0  0  0  0  0  0
   -4.0733   -0.1008    3.3861 H   0  0  0  0  0  0  0  0  0  0  0  0
   -4.4512    1.9127    1.8285 H   0  0  0  0  0  0  0  0  0  0  0  0
   -4.2140    2.3547    0.1446 H   0  0  0  0  0  0  0  0  0  0  0  0
    5.1248   -1.5516    0.5669 H   0  0  0  0  0  0  0  0  0  0  0  0
    6.0168   -0.7459   -0.7174 H   0  0  0  0  0  0  0  0  0  0  0  0
   -5.4706   -0.2907    1.0982 H   0  0  0  0  0  0  0  0  0  0  0  0
    3.9820    0.6526    1.0961 H   0  0  0  0  0  0  0  0  0  0  0  0
    1.9512   -0.6216   -2.3445 H   0  0  0  0  0  0  0  0  0  0  0  0
    0.1459   -1.8924   -0.3331 H   0  0  0  0  0  0  0  0  0  0  0  0
  1 28  1  0
  2 28  1  0
  3 28  1  0
  4  6  1  0
  4  7  1  0
  5  8  1  0
  5  9  1  0
  6 12  1  0
  7 13  1  0
  8 14  1  0
  9 15  1  0
 10 11  2  0
 10 16  1  0
 11 17  1  0
 12 20  1  0
 13 20  1  0
 14 21  1  0
 15 21  1  0
 16 22  2  0
 17 23  2  0
 18 20  1  0
 18 31  1  0
 19 21  1  0
 19 34  1  0
 22 23  1  0
 22 24  1  0
 23 31  1  0
 24 26  1  0
 24 30  2  0
 25 27  1  0
 25 28  1  0
 25 29  1  0
 26 29  1  0
 26 32  2  0
 27 33  2  0
 27 34  1  0
 30 31  1  0
  1 35  1  0
  1 36  1  0
  1 37  1  0
  2 38  1  0
  2 39  1  0
  2 40  1  0
  3 41  1  0
  3 42  1  0
  3 43  1  0
  4 44  1  0
  4 45  1  0
  5 46  1  0
  5 47  1  0
  6 48  1  0
  6 49  1  0
  7 50  1  0
  7 51  1  0
  8 52  1  0
  8 53  1  0
  9 54  1  0
  9 55  1  0
 10 56  1  0
 11 57  1  0
 12 58  1  0
 12 59  1  0
 13 60  1  0
 13 61  1  0
 14 62  1  0
 14 63  1  0
 15 64  1  0
 15 65  1  0
 16 66  1  0
 17 67  1  0
 18 68  1  0
 18 69  1  0
 19 70  1  0
 19 71  1  0
 20 72  1  0
 21 73  1  0
 25 74  1  0
 29 75  1  0
M  END
