
     RDKit          3D

 70 73  0  0  0  0  0  0  0  0999 V2000
   -6.8267    2.2079   -2.1696 C   0  0  0  0  0  0  0  0  0  0  0  0
   -5.3208   -0.1172    2.4725 C   0  0  0  0  0  0  0  0  0  0  0  0
   -1.2688    2.5132    1.1399 C   0  0  0  0  0  0  0  0  0  0  0  0
    4.1078   -1.2836   -0.7215 C   0  0  0  0  0  0  0  0  0  0  0  0
   -5.5776    2.1238   -1.6902 C   0  0  0  0  0  0  0  0  0  0  0  0
    0.4226    0.5063   -3.1217 C   0  0  0  0  0  0  0  0  0  0  0  0
   -1.2515   -4.0930   -0.1672 C   0  0  0  0  0  0  0  0  0  0  0  0
    7.8275   -0.2034    1.0279 C   0  0  0  0  0  0  0  0  0  0  0  0
   -0.3845    0.1405   -2.0410 C   0  0  0  0  0  0  0  0  0  0  0  0
   -1.3706   -2.7050   -0.2672 C   0  0  0  0  0  0  0  0  0  0  0  0
    1.7635    0.8219   -2.9148 C   0  0  0  0  0  0  0  0  0  0  0  0
    8.4974    0.9460    0.6325 C   0  0  0  0  0  0  0  0  0  0  0  0
    6.5414   -0.4656    0.5362 C   0  0  0  0  0  0  0  0  0  0  0  0
   -0.3926   -4.6550    0.7766 C   0  0  0  0  0  0  0  0  0  0  0  0
   -5.0214    0.9307   -0.9609 C   0  0  0  0  0  0  0  0  0  0  0  0
    1.4805    0.4264   -0.5342 C   0  0  0  0  0  0  0  0  0  0  0  0
    0.2289   -2.4367    1.5232 C   0  0  0  0  0  0  0  0  0  0  0  0
    6.5884    1.5664   -0.7319 C   0  0  0  0  0  0  0  0  0  0  0  0
   -3.7095    2.1600    0.7074 C   0  0  0  0  0  0  0  0  0  0  0  0
   -2.9755   -0.2932    1.5311 C   0  0  0  0  0  0  0  0  0  0  0  0
   -4.4837   -0.0710    1.1911 C   0  0  0  0  0  0  0  0  0  0  0  0
   -2.2677    1.6713    0.3261 C   0  0  0  0  0  0  0  0  0  0  0  0
    0.1257    0.1099   -0.7295 C   0  0  0  0  0  0  0  0  0  0  0  0
   -0.6371   -1.8558    0.5814 C   0  0  0  0  0  0  0  0  0  0  0  0
    2.2944    0.7556   -1.6251 C   0  0  0  0  0  0  0  0  0  0  0  0
    7.8706    1.8197   -0.2426 C   0  0  0  0  0  0  0  0  0  0  0  0
    5.8888    0.4123   -0.3553 C   0  0  0  0  0  0  0  0  0  0  0  0
    0.3417   -3.8206    1.6126 C   0  0  0  0  0  0  0  0  0  0  0  0
   -0.7293   -0.3252    0.4714 C   0  0  0  0  0  0  0  0  0  0  0  0
    3.7223    1.0900   -1.4135 C   0  0  0  0  0  0  0  0  0  0  0  0
    8.5166    2.9271   -0.6334 F   0  0  0  0  0  0  0  0  0  0  0  0
    4.5586    0.1102   -0.8388 N   0  0  0  0  0  0  0  0  0  0  0  0
   -4.7978    1.1930    0.4693 N   0  0  0  0  0  0  0  0  0  0  0  0
   -2.1202    0.1863    0.4286 N   0  0  0  0  0  0  0  0  0  0  0  0
    1.1999   -4.3264    2.5446 O   0  0  0  0  0  0  0  0  0  0  0  0
    4.0324    2.2338   -1.7358 O   0  0  0  0  0  0  0  0  0  0  0  0
   -7.1609    3.0970   -2.6946 H   0  0  0  0  0  0  0  0  0  0  0  0
   -7.5435    1.4045   -2.0343 H   0  0  0  0  0  0  0  0  0  0  0  0
   -5.1696   -1.0667    2.9976 H   0  0  0  0  0  0  0  0  0  0  0  0
   -5.0542    0.6934    3.1595 H   0  0  0  0  0  0  0  0  0  0  0  0
   -6.3898   -0.0308    2.2454 H   0  0  0  0  0  0  0  0  0  0  0  0
   -1.5131    3.5788    1.0596 H   0  0  0  0  0  0  0  0  0  0  0  0
   -1.2919    2.2468    2.2020 H   0  0  0  0  0  0  0  0  0  0  0  0
   -0.2426    2.4022    0.7825 H   0  0  0  0  0  0  0  0  0  0  0  0
    4.9252   -1.9684   -0.9701 H   0  0  0  0  0  0  0  0  0  0  0  0
    3.3037   -1.5121   -1.4260 H   0  0  0  0  0  0  0  0  0  0  0  0
    3.7535   -1.4635    0.2979 H   0  0  0  0  0  0  0  0  0  0  0  0
   -4.9028    2.9583   -1.8561 H   0  0  0  0  0  0  0  0  0  0  0  0
    0.0030    0.5436   -4.1241 H   0  0  0  0  0  0  0  0  0  0  0  0
   -1.8285   -4.7334   -0.8298 H   0  0  0  0  0  0  0  0  0  0  0  0
    8.2965   -0.8980    1.7201 H   0  0  0  0  0  0  0  0  0  0  0  0
   -1.4274   -0.1128   -2.2233 H   0  0  0  0  0  0  0  0  0  0  0  0
   -2.0466   -2.2809   -1.0067 H   0  0  0  0  0  0  0  0  0  0  0  0
    2.3926    1.1155   -3.7515 H   0  0  0  0  0  0  0  0  0  0  0  0
    9.4929    1.1697    0.9986 H   0  0  0  0  0  0  0  0  0  0  0  0
    6.0553   -1.3656    0.9026 H   0  0  0  0  0  0  0  0  0  0  0  0
   -0.3077   -5.7348    0.8412 H   0  0  0  0  0  0  0  0  0  0  0  0
   -4.1108    0.5956   -1.4710 H   0  0  0  0  0  0  0  0  0  0  0  0
   -5.7466    0.1121   -1.0643 H   0  0  0  0  0  0  0  0  0  0  0  0
    1.9062    0.4160    0.4669 H   0  0  0  0  0  0  0  0  0  0  0  0
    0.8195   -1.8153    2.1915 H   0  0  0  0  0  0  0  0  0  0  0  0
    6.1905    2.2938   -1.4285 H   0  0  0  0  0  0  0  0  0  0  0  0
   -3.7349    2.4075    1.7783 H   0  0  0  0  0  0  0  0  0  0  0  0
   -3.9146    3.1139    0.2070 H   0  0  0  0  0  0  0  0  0  0  0  0
   -2.7019    0.2096    2.4683 H   0  0  0  0  0  0  0  0  0  0  0  0
   -2.8557   -1.3656    1.7160 H   0  0  0  0  0  0  0  0  0  0  0  0
   -4.8049   -0.9291    0.5844 H   0  0  0  0  0  0  0  0  0  0  0  0
   -2.1277    1.9295   -0.7310 H   0  0  0  0  0  0  0  0  0  0  0  0
   -0.2679    0.0841    1.3809 H   0  0  0  0  0  0  0  0  0  0  0  0
    1.1307   -5.2955    2.5326 H   0  0  0  0  0  0  0  0  0  0  0  0
  1  5  2  3
  2 21  1  0
  3 22  1  0
  4 32  1  0
  5 15  1  0
  6  9  2  0
  6 11  1  0
  7 10  2  0
  7 14  1  0
  8 12  2  0
  8 13  1  0
  9 23  1  0
 10 24  1  0
 11 25  2  0
 12 26  1  0
 13 27  2  0
 14 28  2  0
 15 33  1  0
 16 23  2  0
 16 25  1  0
 17 24  2  0
 17 28  1  0
 18 26  2  0
 18 27  1  0
 19 22  1  0
 19 33  1  0
 20 21  1  0
 20 34  1  0
 21 33  1  0
 22 34  1  0
 23 29  1  0
 24 29  1  0
 25 30  1  0
 26 31  1  0
 27 32  1  0
 28 35  1  0
 29 34  1  0
 30 32  1  0
 30 36  2  0
  1 37  1  0
  1 38  1  0
  2 39  1  0
  2 40  1  0
  2 41  1  0
  3 42  1  0
  3 43  1  0
  3 44  1  0
  4 45  1  0
  4 46  1  0
  4 47  1  0
  5 48  1  0
  6 49  1  0
  7 50  1  0
  8 51  1  0
  9 52  1  0
 10 53  1  0
 11 54  1  0
 12 55  1  0
 13 56  1  0
 14 57  1  0
 15 58  1  0
 15 59  1  0
 16 60  1  0
 17 61  1  0
 18 62  1  0
 19 63  1  0
 19 64  1  0
 20 65  1  0
 20 66  1  0
 21 67  1  0
 22 68  1  0
 29 69  1  0
 35 70  1  0
M  END
