
     RDKit          3D

 80 87  0  0  0  0  0  0  0  0999 V2000
   -0.7504    0.0546    2.6118 C   0  0  0  0  0  0  0  0  0  0  0  0
    4.1078   -1.6227   -2.4332 C   0  0  0  0  0  0  0  0  0  0  0  0
   -6.9227    2.8348   -3.2767 C   0  0  0  0  0  0  0  0  0  0  0  0
   -5.6288    3.1093   -2.8344 C   0  0  0  0  0  0  0  0  0  0  0  0
   -7.6479    1.7950   -2.6969 C   0  0  0  0  0  0  0  0  0  0  0  0
    6.3686    4.2132    0.5247 C   0  0  0  0  0  0  0  0  0  0  0  0
   -5.4447   -3.6666    2.6321 C   0  0  0  0  0  0  0  0  0  0  0  0
   -5.0603    2.3531   -1.8055 C   0  0  0  0  0  0  0  0  0  0  0  0
   -7.0842    1.0418   -1.6652 C   0  0  0  0  0  0  0  0  0  0  0  0
    5.3470    3.3662    0.0665 C   0  0  0  0  0  0  0  0  0  0  0  0
    7.6892    3.7640    0.6785 C   0  0  0  0  0  0  0  0  0  0  0  0
   -4.1654   -2.8260    2.5838 C   0  0  0  0  0  0  0  0  0  0  0  0
   -6.0630   -3.5019    1.2379 C   0  0  0  0  0  0  0  0  0  0  0  0
   -5.1816    0.5029   -0.0749 C   0  0  0  0  0  0  0  0  0  0  0  0
    3.1863    1.2235   -0.2537 C   0  0  0  0  0  0  0  0  0  0  0  0
    6.5804   -0.7664   -0.8583 C   0  0  0  0  0  0  0  0  0  0  0  0
    8.8139    0.3814   -0.0518 C   0  0  0  0  0  0  0  0  0  0  0  0
    2.7929   -1.2707   -0.4201 C   0  0  0  0  0  0  0  0  0  0  0  0
   -5.7871    1.3126   -1.2045 C   0  0  0  0  0  0  0  0  0  0  0  0
    7.4725    0.3222   -0.3574 C   0  0  0  0  0  0  0  0  0  0  0  0
    2.2051    0.1238   -0.6972 C   0  0  0  0  0  0  0  0  0  0  0  0
    5.6068    2.0240   -0.2465 C   0  0  0  0  0  0  0  0  0  0  0  0
    4.6125    1.0069   -0.7869 C   0  0  0  0  0  0  0  0  0  0  0  0
    7.9416    2.4317    0.3519 C   0  0  0  0  0  0  0  0  0  0  0  0
    5.0833   -0.4723   -0.4703 C   0  0  0  0  0  0  0  0  0  0  0  0
   -4.3427   -0.7101   -0.5539 C   0  0  0  0  0  0  0  0  0  0  0  0
   -3.7198   -3.0396    1.1421 C   0  0  0  0  0  0  0  0  0  0  0  0
    6.9347    1.6007   -0.1016 C   0  0  0  0  0  0  0  0  0  0  0  0
    0.8591    0.2960    0.0042 C   0  0  0  0  0  0  0  0  0  0  0  0
   -5.2955   -1.9531   -0.4878 C   0  0  0  0  0  0  0  0  0  0  0  0
   -2.1437    0.0911    0.4914 C   0  0  0  0  0  0  0  0  0  0  0  0
   -1.0193   -0.6080    1.2654 C   0  0  0  0  0  0  0  0  0  0  0  0
   -2.6158   -2.1260    0.5952 C   0  0  0  0  0  0  0  0  0  0  0  0
    9.0870    1.6686    0.3667 N   0  0  0  0  0  0  0  0  0  0  0  0
    0.2040   -0.6925    0.4754 N   0  0  0  0  0  0  0  0  0  0  0  0
    4.1403   -1.4987   -0.9786 N   0  0  0  0  0  0  0  0  0  0  0  0
   -4.9917   -2.9493    0.4256 N   0  0  0  0  0  0  0  0  0  0  0  0
   -3.1108   -0.8507    0.2423 N   0  0  0  0  0  0  0  0  0  0  0  0
    0.4636    1.5805    0.0212 O   0  0  0  0  0  0  0  0  0  0  0  0
   -6.3485   -1.9956   -1.1277 O   0  0  0  0  0  0  0  0  0  0  0  0
   -2.1486    1.2690    0.1589 O   0  0  0  0  0  0  0  0  0  0  0  0
   -2.0666   -2.7161   -0.5647 O   0  0  0  0  0  0  0  0  0  0  0  0
   -1.6042   -1.8947    1.5568 O   0  0  0  0  0  0  0  0  0  0  0  0
   -1.6622    0.0876    3.2225 H   0  0  0  0  0  0  0  0  0  0  0  0
   -0.3792    1.0788    2.5084 H   0  0  0  0  0  0  0  0  0  0  0  0
   -0.0079   -0.5186    3.1832 H   0  0  0  0  0  0  0  0  0  0  0  0
    3.3916   -2.3962   -2.7365 H   0  0  0  0  0  0  0  0  0  0  0  0
    5.0721   -1.9550   -2.8277 H   0  0  0  0  0  0  0  0  0  0  0  0
    3.8322   -0.6954   -2.9381 H   0  0  0  0  0  0  0  0  0  0  0  0
   -7.3615    3.4238   -4.0783 H   0  0  0  0  0  0  0  0  0  0  0  0
   -5.0662    3.9210   -3.2913 H   0  0  0  0  0  0  0  0  0  0  0  0
   -8.6539    1.5705   -3.0471 H   0  0  0  0  0  0  0  0  0  0  0  0
    6.1309    5.2470    0.7646 H   0  0  0  0  0  0  0  0  0  0  0  0
   -6.1254   -3.3518    3.4312 H   0  0  0  0  0  0  0  0  0  0  0  0
   -5.1942   -4.7228    2.8047 H   0  0  0  0  0  0  0  0  0  0  0  0
   -4.0475    2.5803   -1.4724 H   0  0  0  0  0  0  0  0  0  0  0  0
   -7.6643    0.2287   -1.2311 H   0  0  0  0  0  0  0  0  0  0  0  0
    4.3467    3.7760   -0.0382 H   0  0  0  0  0  0  0  0  0  0  0  0
    8.4717    4.4278    1.0262 H   0  0  0  0  0  0  0  0  0  0  0  0
   -3.4253   -3.1516    3.3201 H   0  0  0  0  0  0  0  0  0  0  0  0
   -4.4045   -1.7735    2.7710 H   0  0  0  0  0  0  0  0  0  0  0  0
   -6.9228   -2.8214    1.2637 H   0  0  0  0  0  0  0  0  0  0  0  0
   -6.3760   -4.4631    0.8144 H   0  0  0  0  0  0  0  0  0  0  0  0
   -4.5902    1.1917    0.5397 H   0  0  0  0  0  0  0  0  0  0  0  0
   -5.9883    0.1777    0.5998 H   0  0  0  0  0  0  0  0  0  0  0  0
    3.2039    1.2835    0.8452 H   0  0  0  0  0  0  0  0  0  0  0  0
    2.8094    2.1942   -0.6060 H   0  0  0  0  0  0  0  0  0  0  0  0
    6.7048   -0.8300   -1.9479 H   0  0  0  0  0  0  0  0  0  0  0  0
    6.8832   -1.7300   -0.4237 H   0  0  0  0  0  0  0  0  0  0  0  0
    9.5983   -0.3628   -0.0957 H   0  0  0  0  0  0  0  0  0  0  0  0
    2.8409   -1.4450    0.6664 H   0  0  0  0  0  0  0  0  0  0  0  0
    2.1131   -2.0475   -0.7946 H   0  0  0  0  0  0  0  0  0  0  0  0
    2.0107    0.2251   -1.7730 H   0  0  0  0  0  0  0  0  0  0  0  0
    4.5969    1.1458   -1.8761 H   0  0  0  0  0  0  0  0  0  0  0  0
    5.0632   -0.5731    0.6277 H   0  0  0  0  0  0  0  0  0  0  0  0
   -4.0179   -0.5940   -1.5943 H   0  0  0  0  0  0  0  0  0  0  0  0
   -3.3865   -4.0813    1.0454 H   0  0  0  0  0  0  0  0  0  0  0  0
    9.9947    2.0051    0.6594 H   0  0  0  0  0  0  0  0  0  0  0  0
   -0.4643    1.7348    0.2924 H   0  0  0  0  0  0  0  0  0  0  0  0
   -1.6799   -1.9923   -1.0826 H   0  0  0  0  0  0  0  0  0  0  0  0
  1 32  1  0
  2 36  1  0
  3  4  2  0
  3  5  1  0
  4  8  1  0
  5  9  2  0
  6 10  2  0
  6 11  1  0
  7 12  1  0
  7 13  1  0
  8 19  2  0
  9 19  1  0
 10 22  1  0
 11 24  2  0
 12 27  1  0
 13 37  1  0
 14 19  1  0
 14 26  1  0
 15 21  1  0
 15 23  1  0
 16 20  1  0
 16 25  1  0
 17 20  2  0
 17 34  1  0
 18 21  1  0
 18 36  1  0
 20 28  1  0
 21 29  1  0
 22 23  1  0
 22 28  2  0
 23 25  1  0
 24 28  1  0
 24 34  1  0
 25 36  1  0
 26 30  1  0
 26 38  1  0
 27 33  1  0
 27 37  1  0
 29 35  2  3
 29 39  1  0
 30 37  1  0
 30 40  2  0
 31 32  1  0
 31 38  1  0
 31 41  2  0
 32 35  1  0
 32 43  1  0
 33 38  1  0
 33 42  1  0
 33 43  1  0
  1 44  1  0
  1 45  1  0
  1 46  1  0
  2 47  1  0
  2 48  1  0
  2 49  1  0
  3 50  1  0
  4 51  1  0
  5 52  1  0
  6 53  1  0
  7 54  1  0
  7 55  1  0
  8 56  1  0
  9 57  1  0
 10 58  1  0
 11 59  1  0
 12 60  1  0
 12 61  1  0
 13 62  1  0
 13 63  1  0
 14 64  1  0
 14 65  1  0
 15 66  1  0
 15 67  1  0
 16 68  1  0
 16 69  1  0
 17 70  1  0
 18 71  1  0
 18 72  1  0
 21 73  1  0
 23 74  1  0
 25 75  1  0
 26 76  1  0
 27 77  1  0
 34 78  1  0
 39 79  1  0
 42 80  1  0
M  END
