
     RDKit          3D

 28 27  0  0  0  0  0  0  0  0999 V2000
   -2.5610    1.4873    0.5048 C   0  0  0  0  0  0  0  0  0  0  0  0
   -2.6307   -0.6880   -0.7100 C   0  0  0  0  0  0  0  0  0  0  0  0
   -0.4147    0.5300   -0.4269 C   0  0  0  0  0  0  0  0  0  0  0  0
    2.1022    0.2401   -0.4474 C   0  0  0  0  0  0  0  0  0  0  0  0
    0.6011   -1.7966   -0.1253 C   0  0  0  0  0  0  0  0  0  0  0  0
   -1.7849    0.1997    0.2076 C   0  0  0  0  0  0  0  0  0  0  0  0
    0.7772   -0.2884    0.1450 C   0  0  0  0  0  0  0  0  0  0  0  0
    2.4628    1.6172    0.0480 C   0  0  0  0  0  0  0  0  0  0  0  0
    1.6793   -2.6103    0.4297 N   0  0  0  0  0  0  0  0  0  0  0  0
    2.0311    2.1959    1.0295 O   0  0  0  0  0  0  0  0  0  0  0  0
    3.4017    2.1974   -0.7268 O   0  0  0  0  0  0  0  0  0  0  0  0
   -2.7392    2.0649   -0.4087 H   0  0  0  0  0  0  0  0  0  0  0  0
   -3.5318    1.2612    0.9587 H   0  0  0  0  0  0  0  0  0  0  0  0
   -2.0068    2.1208    1.2057 H   0  0  0  0  0  0  0  0  0  0  0  0
   -2.8598   -0.1785   -1.6526 H   0  0  0  0  0  0  0  0  0  0  0  0
   -3.5809   -0.9446   -0.2292 H   0  0  0  0  0  0  0  0  0  0  0  0
   -2.1208   -1.6238   -0.9530 H   0  0  0  0  0  0  0  0  0  0  0  0
   -0.4598    0.3948   -1.5156 H   0  0  0  0  0  0  0  0  0  0  0  0
   -0.2034    1.5946   -0.2703 H   0  0  0  0  0  0  0  0  0  0  0  0
    2.9446   -0.4019   -0.1715 H   0  0  0  0  0  0  0  0  0  0  0  0
    2.0322    0.2640   -1.5413 H   0  0  0  0  0  0  0  0  0  0  0  0
   -0.3262   -2.1459    0.3382 H   0  0  0  0  0  0  0  0  0  0  0  0
    0.5217   -1.9874   -1.2016 H   0  0  0  0  0  0  0  0  0  0  0  0
   -1.6378   -0.3195    1.1623 H   0  0  0  0  0  0  0  0  0  0  0  0
    0.7977   -0.1372    1.2332 H   0  0  0  0  0  0  0  0  0  0  0  0
    2.5213   -2.5112   -0.1354 H   0  0  0  0  0  0  0  0  0  0  0  0
    1.4229   -3.5955    0.3627 H   0  0  0  0  0  0  0  0  0  0  0  0
    3.5621    3.0608   -0.2910 H   0  0  0  0  0  0  0  0  0  0  0  0
  1  6  1  0
  2  6  1  0
  3  6  1  0
  3  7  1  0
  4  7  1  0
  4  8  1  0
  5  7  1  0
  5  9  1  0
  8 10  2  0
  8 11  1  0
  1 12  1  0
  1 13  1  0
  1 14  1  0
  2 15  1  0
  2 16  1  0
  2 17  1  0
  3 18  1  0
  3 19  1  0
  4 20  1  0
  4 21  1  0
  5 22  1  0
  5 23  1  0
  6 24  1  0
  7 25  1  0
  9 26  1  0
  9 27  1  0
 11 28  1  0
M  END
