
     RDKit          3D

 19 18  0  0  0  0  0  0  0  0999 V2000
   -0.1102   -0.8339   -1.1240 C   0  0  0  0  0  0  0  0  0  0  0  0
   -1.1930    0.2423   -1.0633 C   0  0  0  0  0  0  0  0  0  0  0  0
    1.0530   -0.6692   -0.1331 C   0  0  0  0  0  0  0  0  0  0  0  0
   -2.1881   -0.0070    0.0333 C   0  0  0  0  0  0  0  0  0  0  0  0
    1.8433    0.6250   -0.3849 C   0  0  0  0  0  0  0  0  0  0  0  0
    0.6060   -0.7624    1.2734 N   0  0  0  0  0  0  0  0  0  0  0  0
   -3.1359   -0.7721   -0.0087 O   0  0  0  0  0  0  0  0  0  0  0  0
   -1.9313    0.7153    1.1426 O   0  0  0  0  0  0  0  0  0  0  0  0
    2.0119    1.1800   -1.4586 O   0  0  0  0  0  0  0  0  0  0  0  0
    2.4142    1.1271    0.7341 O   0  0  0  0  0  0  0  0  0  0  0  0
   -0.5636   -1.8239   -0.9833 H   0  0  0  0  0  0  0  0  0  0  0  0
    0.3066   -0.8295   -2.1398 H   0  0  0  0  0  0  0  0  0  0  0  0
   -1.7614    0.2440   -2.0017 H   0  0  0  0  0  0  0  0  0  0  0  0
   -0.7765    1.2502   -0.9658 H   0  0  0  0  0  0  0  0  0  0  0  0
    1.7626   -1.4887   -0.3000 H   0  0  0  0  0  0  0  0  0  0  0  0
    1.4259   -0.5807    1.8605 H   0  0  0  0  0  0  0  0  0  0  0  0
   -0.0144    0.0276    1.4768 H   0  0  0  0  0  0  0  0  0  0  0  0
   -2.6398    0.4326    1.7611 H   0  0  0  0  0  0  0  0  0  0  0  0
    2.8908    1.9235    0.4177 H   0  0  0  0  0  0  0  0  0  0  0  0
  1  2  1  0
  1  3  1  0
  2  4  1  0
  3  5  1  0
  3  6  1  0
  4  7  2  0
  4  8  1  0
  5  9  2  0
  5 10  1  0
  1 11  1  0
  1 12  1  0
  2 13  1  0
  2 14  1  0
  3 15  1  0
  6 16  1  0
  6 17  1  0
  8 18  1  0
 10 19  1  0
M  END
