
     RDKit          3D

 19 19  0  0  0  0  0  0  0  0999 V2000
   -1.7271    0.3704   -0.0450 C   0  0  0  0  0  0  0  0  0  0  0  0
   -0.7673    1.2093   -0.8850 C   0  0  0  0  0  0  0  0  0  0  0  0
   -1.2224   -1.0660    0.0680 C   0  0  0  0  0  0  0  0  0  0  0  0
    0.6530    1.1422   -0.3349 C   0  0  0  0  0  0  0  0  0  0  0  0
    0.2038   -1.1142    0.6067 C   0  0  0  0  0  0  0  0  0  0  0  0
    2.4487   -0.5153   -0.1448 C   0  0  0  0  0  0  0  0  0  0  0  0
    1.0938   -0.2309   -0.1365 N   0  0  0  0  0  0  0  0  0  0  0  0
    2.9746   -1.5225    0.3102 O   0  0  0  0  0  0  0  0  0  0  0  0
   -1.8222    0.8086    0.9558 H   0  0  0  0  0  0  0  0  0  0  0  0
   -2.7241    0.3796   -0.4990 H   0  0  0  0  0  0  0  0  0  0  0  0
   -0.7748    0.8363   -1.9169 H   0  0  0  0  0  0  0  0  0  0  0  0
   -1.1069    2.2503   -0.9152 H   0  0  0  0  0  0  0  0  0  0  0  0
   -1.2508   -1.5339   -0.9241 H   0  0  0  0  0  0  0  0  0  0  0  0
   -1.8862   -1.6468    0.7179 H   0  0  0  0  0  0  0  0  0  0  0  0
    1.3435    1.6576   -1.0118 H   0  0  0  0  0  0  0  0  0  0  0  0
    0.7126    1.6483    0.6363 H   0  0  0  0  0  0  0  0  0  0  0  0
    0.5801   -2.1425    0.5681 H   0  0  0  0  0  0  0  0  0  0  0  0
    0.2285   -0.7965    1.6562 H   0  0  0  0  0  0  0  0  0  0  0  0
    3.0435    0.2660   -0.6469 H   0  0  0  0  0  0  0  0  0  0  0  0
  1  2  1  0
  1  3  1  0
  2  4  1  0
  3  5  1  0
  4  7  1  0
  5  7  1  0
  6  7  1  0
  6  8  2  0
  1  9  1  0
  1 10  1  0
  2 11  1  0
  2 12  1  0
  3 13  1  0
  3 14  1  0
  4 15  1  0
  4 16  1  0
  5 17  1  0
  5 18  1  0
  6 19  1  0
M  END
