
     RDKit          3D

 18 18  0  0  0  0  0  0  0  0999 V2000
   -1.2589   -1.2446   -0.1490 C   0  0  0  0  0  0  0  0  0  0  0  0
    0.2290   -1.0513   -0.2305 C   0  0  0  0  0  0  0  0  0  0  0  0
   -2.0161    0.0802    0.0350 C   0  0  0  0  0  0  0  0  0  0  0  0
   -0.0049    1.2954    0.5979 C   0  0  0  0  0  0  0  0  0  0  0  0
    0.7996    0.1256    0.0926 C   0  0  0  0  0  0  0  0  0  0  0  0
    2.2551    0.3605   -0.0151 C   0  0  0  0  0  0  0  0  0  0  0  0
   -1.3733    0.9473    1.0287 N   0  0  0  0  0  0  0  0  0  0  0  0
    2.8210    1.4090    0.2386 O   0  0  0  0  0  0  0  0  0  0  0  0
    2.9456   -0.7139   -0.4330 O   0  0  0  0  0  0  0  0  0  0  0  0
   -1.4745   -1.9175    0.6896 H   0  0  0  0  0  0  0  0  0  0  0  0
   -1.6132   -1.7351   -1.0626 H   0  0  0  0  0  0  0  0  0  0  0  0
    0.8221   -1.8947   -0.5728 H   0  0  0  0  0  0  0  0  0  0  0  0
   -3.0434   -0.1305    0.3525 H   0  0  0  0  0  0  0  0  0  0  0  0
   -2.0903    0.6114   -0.9226 H   0  0  0  0  0  0  0  0  0  0  0  0
    0.4968    1.7571    1.4564 H   0  0  0  0  0  0  0  0  0  0  0  0
   -0.0629    2.0602   -0.1862 H   0  0  0  0  0  0  0  0  0  0  0  0
   -1.3047    0.4412    1.9116 H   0  0  0  0  0  0  0  0  0  0  0  0
    3.8731   -0.4003   -0.4529 H   0  0  0  0  0  0  0  0  0  0  0  0
  1  2  1  0
  1  3  1  0
  2  5  2  0
  3  7  1  0
  4  5  1  0
  4  7  1  0
  5  6  1  0
  6  8  2  0
  6  9  1  0
  1 10  1  0
  1 11  1  0
  2 12  1  0
  3 13  1  0
  3 14  1  0
  4 15  1  0
  4 16  1  0
  7 17  1  0
  9 18  1  0
M  END
