
     RDKit          3D

 26 25  0  0  0  0  0  0  0  0999 V2000
    4.4752   -0.0448   -0.1302 C   0  0  0  0  0  0  0  0  0  0  0  0
   -1.9823    1.4013    0.0034 C   0  0  0  0  0  0  0  0  0  0  0  0
   -2.0368   -0.9024   -0.9467 C   0  0  0  0  0  0  0  0  0  0  0  0
   -2.5517   -0.5295    1.4480 C   0  0  0  0  0  0  0  0  0  0  0  0
   -0.2023   -0.2697    0.6834 C   0  0  0  0  0  0  0  0  0  0  0  0
    0.8216    0.1439   -0.3780 C   0  0  0  0  0  0  0  0  0  0  0  0
    3.1324    0.2344   -0.7299 C   0  0  0  0  0  0  0  0  0  0  0  0
   -1.6775   -0.0675    0.2778 N   0  0  0  0  0  4  0  0  0  0  0  0
    2.9409    0.6985   -1.8439 O   0  0  0  0  0  0  0  0  0  0  0  0
    2.1374   -0.1020    0.1426 O   0  0  0  0  0  0  0  0  0  0  0  0
    4.6067    0.5504    0.7768 H   0  0  0  0  0  0  0  0  0  0  0  0
    4.5673   -1.1108    0.0916 H   0  0  0  0  0  0  0  0  0  0  0  0
    5.2553    0.2316   -0.8452 H   0  0  0  0  0  0  0  0  0  0  0  0
   -1.6680    1.9875    0.8716 H   0  0  0  0  0  0  0  0  0  0  0  0
   -1.4410    1.7137   -0.8931 H   0  0  0  0  0  0  0  0  0  0  0  0
   -3.0592    1.5056   -0.1601 H   0  0  0  0  0  0  0  0  0  0  0  0
   -3.1142   -0.8175   -1.1182 H   0  0  0  0  0  0  0  0  0  0  0  0
   -1.4937   -0.5138   -1.8118 H   0  0  0  0  0  0  0  0  0  0  0  0
   -1.7609   -1.9421   -0.7491 H   0  0  0  0  0  0  0  0  0  0  0  0
   -2.3429   -1.5864    1.6386 H   0  0  0  0  0  0  0  0  0  0  0  0
   -3.6018   -0.3915    1.1736 H   0  0  0  0  0  0  0  0  0  0  0  0
   -2.3035    0.0766    2.3244 H   0  0  0  0  0  0  0  0  0  0  0  0
   -0.0770   -1.3309    0.9327 H   0  0  0  0  0  0  0  0  0  0  0  0
   -0.0384    0.3013    1.6060 H   0  0  0  0  0  0  0  0  0  0  0  0
    0.7269    1.2103   -0.6071 H   0  0  0  0  0  0  0  0  0  0  0  0
    0.6877   -0.4463   -1.2904 H   0  0  0  0  0  0  0  0  0  0  0  0
  1  7  1  0
  2  8  1  0
  3  8  1  0
  4  8  1  0
  5  6  1  0
  5  8  1  0
  6 10  1  0
  7  9  2  0
  7 10  1  0
  1 11  1  0
  1 12  1  0
  1 13  1  0
  2 14  1  0
  2 15  1  0
  2 16  1  0
  3 17  1  0
  3 18  1  0
  3 19  1  0
  4 20  1  0
  4 21  1  0
  4 22  1  0
  5 23  1  0
  5 24  1  0
  6 25  1  0
  6 26  1  0
M  CHG  1   8   1
M  END
