
     RDKit          3D

 17 17  0  0  0  0  0  0  0  0999 V2000
   -2.1002    0.7830   -0.2693 C   0  0  0  0  0  0  0  0  0  0  0  0
   -2.2025   -0.5943   -0.4306 C   0  0  0  0  0  0  0  0  0  0  0  0
   -0.8635    1.3527    0.0301 C   0  0  0  0  0  0  0  0  0  0  0  0
   -1.0678   -1.3991   -0.3019 C   0  0  0  0  0  0  0  0  0  0  0  0
    0.2851    0.5501    0.1530 C   0  0  0  0  0  0  0  0  0  0  0  0
    0.1960   -0.8426   -0.0498 C   0  0  0  0  0  0  0  0  0  0  0  0
    1.5481    1.2632    0.4806 C   0  0  0  0  0  0  0  0  0  0  0  0
    1.2624   -1.7252    0.2098 N   0  0  0  0  0  0  0  0  0  0  0  0
    1.6290    2.4051    0.8990 O   0  0  0  0  0  0  0  0  0  0  0  0
    2.6660    0.5545    0.2206 O   0  0  0  0  0  0  0  0  0  0  0  0
   -2.9825    1.4117   -0.3595 H   0  0  0  0  0  0  0  0  0  0  0  0
   -3.1681   -1.0484   -0.6385 H   0  0  0  0  0  0  0  0  0  0  0  0
   -0.7962    2.4298    0.1743 H   0  0  0  0  0  0  0  0  0  0  0  0
   -1.1786   -2.4774   -0.3912 H   0  0  0  0  0  0  0  0  0  0  0  0
    1.2252   -2.5883   -0.3219 H   0  0  0  0  0  0  0  0  0  0  0  0
    2.1665   -1.2521    0.1218 H   0  0  0  0  0  0  0  0  0  0  0  0
    3.3811    1.1772    0.4736 H   0  0  0  0  0  0  0  0  0  0  0  0
  1  2  2  0
  1  3  1  0
  2  4  1  0
  3  5  2  0
  4  6  2  0
  5  6  1  0
  5  7  1  0
  6  8  1  0
  7  9  2  0
  7 10  1  0
  1 11  1  0
  2 12  1  0
  3 13  1  0
  4 14  1  0
  8 15  1  0
  8 16  1  0
 10 17  1  0
M  END
