
     RDKit          3D

 17 17  0  0  0  0  0  0  0  0999 V2000
   -2.7266    0.0743   -0.0511 C   0  0  0  0  0  0  0  0  0  0  0  0
   -0.4840    1.2195   -0.1082 C   0  0  0  0  0  0  0  0  0  0  0  0
   -0.5545   -1.1885    0.1072 C   0  0  0  0  0  0  0  0  0  0  0  0
    0.9125    1.1838   -0.0898 C   0  0  0  0  0  0  0  0  0  0  0  0
    0.8409   -1.2292    0.1260 C   0  0  0  0  0  0  0  0  0  0  0  0
    3.0464   -0.0736    0.0474 C   0  0  0  0  0  0  0  0  0  0  0  0
   -1.2272    0.0363    0.0027 C   0  0  0  0  0  0  0  0  0  0  0  0
    1.5703   -0.0424    0.0294 C   0  0  0  0  0  0  0  0  0  0  0  0
    3.6777   -1.1184    0.1466 O   0  0  0  0  0  0  0  0  0  0  0  0
   -3.0657   -0.0096   -1.0881 H   0  0  0  0  0  0  0  0  0  0  0  0
   -3.1089    1.0090    0.3724 H   0  0  0  0  0  0  0  0  0  0  0  0
   -3.1591   -0.7464    0.5309 H   0  0  0  0  0  0  0  0  0  0  0  0
   -0.9916    2.1768   -0.2088 H   0  0  0  0  0  0  0  0  0  0  0  0
   -1.1134   -2.1196    0.1757 H   0  0  0  0  0  0  0  0  0  0  0  0
    1.4696    2.1132   -0.1717 H   0  0  0  0  0  0  0  0  0  0  0  0
    1.3543   -2.1846    0.2129 H   0  0  0  0  0  0  0  0  0  0  0  0
    3.5595    0.8993   -0.0336 H   0  0  0  0  0  0  0  0  0  0  0  0
  1  7  1  0
  2  4  2  0
  2  7  1  0
  3  5  1  0
  3  7  2  0
  4  8  1  0
  5  8  2  0
  6  8  1  0
  6  9  2  0
  1 10  1  0
  1 11  1  0
  1 12  1  0
  2 13  1  0
  3 14  1  0
  4 15  1  0
  5 16  1  0
  6 17  1  0
M  END
