
     RDKit          3D

 23 23  0  0  0  0  0  0  0  0999 V2000
    1.2532    0.3394   -1.4355 C   0  0  0  0  0  0  0  0  0  0  0  0
    1.2830   -0.0099    0.9574 C   0  0  0  0  0  0  0  0  0  0  0  0
    2.4779   -0.3227   -1.5467 C   0  0  0  0  0  0  0  0  0  0  0  0
    2.5076   -0.6719    0.8453 C   0  0  0  0  0  0  0  0  0  0  0  0
   -0.6877    1.2046   -0.0622 C   0  0  0  0  0  0  0  0  0  0  0  0
    0.6462    0.5027   -0.1820 C   0  0  0  0  0  0  0  0  0  0  0  0
    3.0998   -0.8253   -0.4061 C   0  0  0  0  0  0  0  0  0  0  0  0
   -1.8771    0.3272   -0.4871 C   0  0  0  0  0  0  0  0  0  0  0  0
   -2.0382   -0.8320    0.4980 C   0  0  0  0  0  0  0  0  0  0  0  0
    4.6080   -1.6417   -0.5439 Cl  0  0  0  0  0  0  0  0  0  0  0  0
   -3.1359    1.1105   -0.5100 N   0  0  0  0  0  0  0  0  0  0  0  0
   -2.3364   -0.7347    1.6802 O   0  0  0  0  0  0  0  0  0  0  0  0
   -1.8137   -2.0398   -0.0563 O   0  0  0  0  0  0  0  0  0  0  0  0
    0.7773    0.7259   -2.3345 H   0  0  0  0  0  0  0  0  0  0  0  0
    0.8291    0.0994    1.9411 H   0  0  0  0  0  0  0  0  0  0  0  0
    2.9391   -0.4436   -2.5232 H   0  0  0  0  0  0  0  0  0  0  0  0
    2.9916   -1.0647    1.7354 H   0  0  0  0  0  0  0  0  0  0  0  0
   -0.6487    2.1098   -0.6834 H   0  0  0  0  0  0  0  0  0  0  0  0
   -0.8216    1.5593    0.9688 H   0  0  0  0  0  0  0  0  0  0  0  0
   -1.7198   -0.0785   -1.4930 H   0  0  0  0  0  0  0  0  0  0  0  0
   -3.3670    1.3828    0.4483 H   0  0  0  0  0  0  0  0  0  0  0  0
   -2.9937    1.9750   -1.0289 H   0  0  0  0  0  0  0  0  0  0  0  0
   -1.9732   -2.6718    0.6746 H   0  0  0  0  0  0  0  0  0  0  0  0
  1  3  2  0
  1  6  1  0
  2  4  1  0
  2  6  2  0
  3  7  1  0
  4  7  2  0
  5  6  1  0
  5  8  1  0
  7 10  1  0
  8  9  1  0
  8 11  1  0
  9 12  2  0
  9 13  1  0
  1 14  1  0
  2 15  1  0
  3 16  1  0
  4 17  1  0
  5 18  1  0
  5 19  1  0
  8 20  1  0
 11 21  1  0
 11 22  1  0
 13 23  1  0
M  END
