
     RDKit          3D

 21 22  0  0  0  0  0  0  0  0999 V2000
    2.6028   -1.1234   -0.8218 C   0  0  0  0  0  0  0  0  0  0  0  0
    2.4478   -0.8015    0.5232 C   0  0  0  0  0  0  0  0  0  0  0  0
    1.6597   -0.6894   -1.7482 C   0  0  0  0  0  0  0  0  0  0  0  0
    1.3454   -0.0499    0.9397 C   0  0  0  0  0  0  0  0  0  0  0  0
    0.5600    0.0616   -1.3247 C   0  0  0  0  0  0  0  0  0  0  0  0
   -1.5928    0.8599    1.7164 C   0  0  0  0  0  0  0  0  0  0  0  0
    0.3697    0.3887    0.0290 C   0  0  0  0  0  0  0  0  0  0  0  0
   -0.8188    1.2145    0.4676 C   0  0  0  0  0  0  0  0  0  0  0  0
   -2.2339    0.6813    0.3748 C   0  0  0  0  0  0  0  0  0  0  0  0
   -2.5299   -0.6786   -0.0822 N   0  0  0  0  0  0  0  0  0  0  0  0
    3.4601   -1.7062   -1.1477 H   0  0  0  0  0  0  0  0  0  0  0  0
    3.1850   -1.1309    1.2506 H   0  0  0  0  0  0  0  0  0  0  0  0
    1.7795   -0.9304   -2.8011 H   0  0  0  0  0  0  0  0  0  0  0  0
    1.2473    0.1992    1.9942 H   0  0  0  0  0  0  0  0  0  0  0  0
   -0.1637    0.4005   -2.0630 H   0  0  0  0  0  0  0  0  0  0  0  0
   -1.3250   -0.0278    2.2771 H   0  0  0  0  0  0  0  0  0  0  0  0
   -1.9484    1.6730    2.3391 H   0  0  0  0  0  0  0  0  0  0  0  0
   -0.7105    2.2816    0.2771 H   0  0  0  0  0  0  0  0  0  0  0  0
   -3.0014    1.4064    0.1099 H   0  0  0  0  0  0  0  0  0  0  0  0
   -2.5555   -0.7116   -1.1008 H   0  0  0  0  0  0  0  0  0  0  0  0
   -1.7776   -1.3169    0.1831 H   0  0  0  0  0  0  0  0  0  0  0  0
  1  2  2  0
  1  3  1  0
  2  4  1  0
  3  5  2  0
  4  7  2  0
  5  7  1  0
  6  8  1  0
  6  9  1  0
  7  8  1  0
  8  9  1  0
  9 10  1  0
  1 11  1  0
  2 12  1  0
  3 13  1  0
  4 14  1  0
  5 15  1  0
  6 16  1  0
  6 17  1  0
  8 18  1  0
  9 19  1  0
 10 20  1  0
 10 21  1  0
M  END
