
     RDKit          3D

 25 25  0  0  0  0  0  0  0  0999 V2000
   -1.4553    1.5646   -1.4293 C   0  0  0  0  0  0  0  0  0  0  0  0
   -3.0007   -1.4367    0.1762 C   0  0  0  0  0  0  0  0  0  0  0  0
    3.3241   -0.7919    0.5693 C   0  0  0  0  0  0  0  0  0  0  0  0
    2.1335   -1.0267   -0.1218 C   0  0  0  0  0  0  0  0  0  0  0  0
    3.4216    0.2979    1.4308 C   0  0  0  0  0  0  0  0  0  0  0  0
    1.1338    0.9183    0.9070 C   0  0  0  0  0  0  0  0  0  0  0  0
   -1.4894    0.3487   -0.5066 C   0  0  0  0  0  0  0  0  0  0  0  0
    1.0275   -0.1760    0.0416 C   0  0  0  0  0  0  0  0  0  0  0  0
    2.3286    1.1462    1.5942 C   0  0  0  0  0  0  0  0  0  0  0  0
   -0.2172   -0.4893   -0.7299 C   0  0  0  0  0  0  0  0  0  0  0  0
    2.4519    2.4954    2.6565 Cl  0  0  0  0  0  0  0  0  0  0  0  0
   -2.6895   -0.4487   -0.8509 N   0  0  0  0  0  0  0  0  0  0  0  0
   -0.1924   -1.4148   -1.5456 O   0  0  0  0  0  0  0  0  0  0  0  0
   -1.3791    1.2690   -2.4824 H   0  0  0  0  0  0  0  0  0  0  0  0
   -0.5931    2.2033   -1.2115 H   0  0  0  0  0  0  0  0  0  0  0  0
   -2.3584    2.1735   -1.3109 H   0  0  0  0  0  0  0  0  0  0  0  0
   -3.2268   -0.9526    1.1316 H   0  0  0  0  0  0  0  0  0  0  0  0
   -2.1858   -2.1524    0.3227 H   0  0  0  0  0  0  0  0  0  0  0  0
   -3.8896   -2.0006   -0.1233 H   0  0  0  0  0  0  0  0  0  0  0  0
    4.1721   -1.4592    0.4331 H   0  0  0  0  0  0  0  0  0  0  0  0
    2.0731   -1.8832   -0.7929 H   0  0  0  0  0  0  0  0  0  0  0  0
    4.3487    0.4809    1.9682 H   0  0  0  0  0  0  0  0  0  0  0  0
    0.3129    1.6106    1.0607 H   0  0  0  0  0  0  0  0  0  0  0  0
   -1.5708    0.6731    0.5350 H   0  0  0  0  0  0  0  0  0  0  0  0
   -2.4798   -0.9493   -1.7217 H   0  0  0  0  0  0  0  0  0  0  0  0
  1  7  1  0
  2 12  1  0
  3  4  2  0
  3  5  1  0
  4  8  1  0
  5  9  2  0
  6  8  2  0
  6  9  1  0
  7 10  1  0
  7 12  1  0
  8 10  1  0
  9 11  1  0
 10 13  2  0
  1 14  1  0
  1 15  1  0
  1 16  1  0
  2 17  1  0
  2 18  1  0
  2 19  1  0
  3 20  1  0
  4 21  1  0
  5 22  1  0
  6 23  1  0
  7 24  1  0
 12 25  1  0
M  END
