
     RDKit          3D

 26 26  0  0  0  0  0  0  0  0999 V2000
   -3.0053   -1.1329   -0.6405 C   0  0  0  0  0  0  0  0  0  0  0  0
   -0.8754    1.6892    2.0987 C   0  0  0  0  0  0  0  0  0  0  0  0
   -2.1123   -0.7437    0.5282 C   0  0  0  0  0  0  0  0  0  0  0  0
    2.9217   -1.2591   -1.5632 C   0  0  0  0  0  0  0  0  0  0  0  0
    1.8762   -0.3224   -1.3228 C   0  0  0  0  0  0  0  0  0  0  0  0
    3.7774   -1.3612   -0.4899 C   0  0  0  0  0  0  0  0  0  0  0  0
    1.0585    1.2901    0.5426 C   0  0  0  0  0  0  0  0  0  0  0  0
   -0.2178    0.6689    1.1619 C   0  0  0  0  0  0  0  0  0  0  0  0
    1.9663    0.2590   -0.0734 C   0  0  0  0  0  0  0  0  0  0  0  0
   -1.1543    0.2696    0.0946 N   0  0  0  0  0  0  0  0  0  0  0  0
    3.3178   -0.3348    0.7979 S   0  0  0  0  0  0  0  0  0  0  0  0
   -2.4166   -1.5351   -1.4720 H   0  0  0  0  0  0  0  0  0  0  0  0
   -3.7186   -1.9030   -0.3295 H   0  0  0  0  0  0  0  0  0  0  0  0
   -3.5763   -0.2734   -1.0077 H   0  0  0  0  0  0  0  0  0  0  0  0
   -0.1782    1.9926    2.8875 H   0  0  0  0  0  0  0  0  0  0  0  0
   -1.7596    1.2737    2.5921 H   0  0  0  0  0  0  0  0  0  0  0  0
   -1.1809    2.5917    1.5572 H   0  0  0  0  0  0  0  0  0  0  0  0
   -2.7399   -0.3722    1.3447 H   0  0  0  0  0  0  0  0  0  0  0  0
   -1.5857   -1.6375    0.8813 H   0  0  0  0  0  0  0  0  0  0  0  0
    3.0369   -1.8305   -2.4756 H   0  0  0  0  0  0  0  0  0  0  0  0
    1.0850   -0.0914   -2.0264 H   0  0  0  0  0  0  0  0  0  0  0  0
    4.6509   -1.9913   -0.3968 H   0  0  0  0  0  0  0  0  0  0  0  0
    0.7887    2.0352   -0.2182 H   0  0  0  0  0  0  0  0  0  0  0  0
    1.6110    1.8423    1.3146 H   0  0  0  0  0  0  0  0  0  0  0  0
    0.0755   -0.2096    1.7517 H   0  0  0  0  0  0  0  0  0  0  0  0
   -1.6451    1.0858   -0.2683 H   0  0  0  0  0  0  0  0  0  0  0  0
  1  3  1  0
  2  8  1  0
  3 10  1  0
  4  5  1  0
  4  6  2  0
  5  9  2  0
  6 11  1  0
  7  8  1  0
  7  9  1  0
  8 10  1  0
  9 11  1  0
  1 12  1  0
  1 13  1  0
  1 14  1  0
  2 15  1  0
  2 16  1  0
  2 17  1  0
  3 18  1  0
  3 19  1  0
  4 20  1  0
  5 21  1  0
  6 22  1  0
  7 23  1  0
  7 24  1  0
  8 25  1  0
 10 26  1  0
M  END
