
     RDKit          3D

 24 26  0  0  0  0  0  0  0  0999 V2000
    0.4239   -2.1541   -0.0044 C   0  0  0  0  0  0  0  0  0  0  0  0
    1.8055   -1.9336    0.0372 C   0  0  0  0  0  0  0  0  0  0  0  0
   -1.9342   -1.0572    0.0364 C   0  0  0  0  0  0  0  0  0  0  0  0
   -1.0541    1.2508    0.1883 C   0  0  0  0  0  0  0  0  0  0  0  0
    3.4329    1.1846    0.2703 C   0  0  0  0  0  0  0  0  0  0  0  0
   -0.4343   -1.0547    0.0304 C   0  0  0  0  0  0  0  0  0  0  0  0
   -2.2396    0.4113   -0.3469 C   0  0  0  0  0  0  0  0  0  0  0  0
    0.0552    0.2561    0.1168 C   0  0  0  0  0  0  0  0  0  0  0  0
    2.2621   -0.6269    0.1239 C   0  0  0  0  0  0  0  0  0  0  0  0
    1.4081    0.4521    0.1682 C   0  0  0  0  0  0  0  0  0  0  0  0
   -3.5449    0.8661    0.1326 N   0  0  0  0  0  0  0  0  0  0  0  0
    3.5689   -0.2496    0.1836 O   0  0  0  0  0  0  0  0  0  0  0  0
    2.0622    1.6356    0.2653 O   0  0  0  0  0  0  0  0  0  0  0  0
    0.0307   -3.1649   -0.0606 H   0  0  0  0  0  0  0  0  0  0  0  0
    2.5045   -2.7623    0.0098 H   0  0  0  0  0  0  0  0  0  0  0  0
   -2.3540   -1.7551   -0.6943 H   0  0  0  0  0  0  0  0  0  0  0  0
   -2.2966   -1.3059    1.0402 H   0  0  0  0  0  0  0  0  0  0  0  0
   -1.2064    1.5617    1.2279 H   0  0  0  0  0  0  0  0  0  0  0  0
   -0.8747    2.1290   -0.4391 H   0  0  0  0  0  0  0  0  0  0  0  0
    3.9538    1.6378   -0.5812 H   0  0  0  0  0  0  0  0  0  0  0  0
    3.9104    1.5260    1.1960 H   0  0  0  0  0  0  0  0  0  0  0  0
   -2.2417    0.4817   -1.4442 H   0  0  0  0  0  0  0  0  0  0  0  0
   -3.5697    0.8216    1.1513 H   0  0  0  0  0  0  0  0  0  0  0  0
   -3.6682    1.8499   -0.1061 H   0  0  0  0  0  0  0  0  0  0  0  0
  1  2  2  0
  1  6  1  0
  2  9  1  0
  3  6  1  0
  3  7  1  0
  4  7  1  0
  4  8  1  0
  5 12  1  0
  5 13  1  0
  6  8  2  0
  7 11  1  0
  8 10  1  0
  9 10  2  0
  9 12  1  0
 10 13  1  0
  1 14  1  0
  2 15  1  0
  3 16  1  0
  3 17  1  0
  4 18  1  0
  4 19  1  0
  5 20  1  0
  5 21  1  0
  7 22  1  0
 11 23  1  0
 11 24  1  0
M  END
