
     RDKit          3D

 26 26  0  0  0  0  0  0  0  0999 V2000
    4.2807    0.1855   -1.0094 C   0  0  0  0  0  0  0  0  0  0  0  0
   -1.7543   -2.3265    1.6348 C   0  0  0  0  0  0  0  0  0  0  0  0
    1.8848   -0.9553   -0.0057 C   0  0  0  0  0  0  0  0  0  0  0  0
    0.6715   -1.4516    0.4877 C   0  0  0  0  0  0  0  0  0  0  0  0
   -1.5500    1.5923   -0.0284 C   0  0  0  0  0  0  0  0  0  0  0  0
   -2.7602    1.2348   -0.4756 C   0  0  0  0  0  0  0  0  0  0  0  0
    0.8207    1.1473   -0.4824 C   0  0  0  0  0  0  0  0  0  0  0  0
   -0.4080    0.6605   -0.0066 C   0  0  0  0  0  0  0  0  0  0  0  0
    1.9655    0.3473   -0.4887 C   0  0  0  0  0  0  0  0  0  0  0  0
   -0.4772   -0.6526    0.5015 C   0  0  0  0  0  0  0  0  0  0  0  0
   -3.8379    2.1937   -0.4838 N   0  0  0  0  0  4  0  0  0  0  0  0
   -4.9240    1.7783   -0.9069 O   0  0  0  0  0  1  0  0  0  0  0  0
   -3.6224    3.3455   -0.0845 O   0  0  0  0  0  0  0  0  0  0  0  0
    3.0836    0.9533   -0.9896 O   0  0  0  0  0  0  0  0  0  0  0  0
   -1.6935   -1.0615    0.9870 O   0  0  0  0  0  0  0  0  0  0  0  0
    5.0729    0.8122   -1.4301 H   0  0  0  0  0  0  0  0  0  0  0  0
    4.5836   -0.0995    0.0035 H   0  0  0  0  0  0  0  0  0  0  0  0
    4.1743   -0.6940   -1.6531 H   0  0  0  0  0  0  0  0  0  0  0  0
   -1.0717   -2.3680    2.4900 H   0  0  0  0  0  0  0  0  0  0  0  0
   -2.7720   -2.4576    2.0150 H   0  0  0  0  0  0  0  0  0  0  0  0
   -1.5566   -3.1387    0.9280 H   0  0  0  0  0  0  0  0  0  0  0  0
    2.7468   -1.6144    0.0066 H   0  0  0  0  0  0  0  0  0  0  0  0
    0.6617   -2.4723    0.8566 H   0  0  0  0  0  0  0  0  0  0  0  0
   -1.3392    2.6012    0.3198 H   0  0  0  0  0  0  0  0  0  0  0  0
   -3.0754    0.2759   -0.8550 H   0  0  0  0  0  0  0  0  0  0  0  0
    0.8962    2.1643   -0.8643 H   0  0  0  0  0  0  0  0  0  0  0  0
  1 14  1  0
  2 15  1  0
  3  4  2  0
  3  9  1  0
  4 10  1  0
  5  6  2  3
  5  8  1  0
  6 11  1  0
  7  8  1  0
  7  9  2  0
  8 10  2  0
  9 14  1  0
 10 15  1  0
 11 12  1  0
 11 13  2  0
  1 16  1  0
  1 17  1  0
  1 18  1  0
  2 19  1  0
  2 20  1  0
  2 21  1  0
  3 22  1  0
  4 23  1  0
  5 24  1  0
  6 25  1  0
  7 26  1  0
M  CHG  2  11   1  12  -1
M  END
