
     RDKit          3D

 25 26  0  0  0  0  0  0  0  0999 V2000
   -1.1891   -0.3369   -1.5316 C   0  0  0  0  0  0  0  0  0  0  0  0
    3.4115   -1.0088    0.3235 C   0  0  0  0  0  0  0  0  0  0  0  0
    2.4801   -1.9510    0.7535 C   0  0  0  0  0  0  0  0  0  0  0  0
    3.0181    0.3106    0.1115 C   0  0  0  0  0  0  0  0  0  0  0  0
    1.1532   -1.5744    0.9693 C   0  0  0  0  0  0  0  0  0  0  0  0
    1.6917    0.6893    0.3267 C   0  0  0  0  0  0  0  0  0  0  0  0
   -1.7066   -0.3463   -0.0939 C   0  0  0  0  0  0  0  0  0  0  0  0
    0.7410   -0.2485    0.7557 C   0  0  0  0  0  0  0  0  0  0  0  0
   -0.7057    0.1279    0.9792 C   0  0  0  0  0  0  0  0  0  0  0  0
   -2.1636    1.8003    0.5572 C   0  0  0  0  0  0  0  0  0  0  0  0
   -2.6446    2.9819    0.5714 N   0  0  0  0  0  0  0  0  0  0  0  0
   -2.7291    0.6751    0.0505 N   0  0  0  0  0  0  0  0  0  0  0  0
   -0.9196    1.5537    1.0449 O   0  0  0  0  0  0  0  0  0  0  0  0
   -0.7631    0.6343   -1.8070 H   0  0  0  0  0  0  0  0  0  0  0  0
   -0.4233   -1.1040   -1.6823 H   0  0  0  0  0  0  0  0  0  0  0  0
   -2.0054   -0.5440   -2.2328 H   0  0  0  0  0  0  0  0  0  0  0  0
    4.4454   -1.3003    0.1585 H   0  0  0  0  0  0  0  0  0  0  0  0
    2.7892   -2.9789    0.9251 H   0  0  0  0  0  0  0  0  0  0  0  0
    3.7444    1.0491   -0.2182 H   0  0  0  0  0  0  0  0  0  0  0  0
    0.4437   -2.3248    1.3118 H   0  0  0  0  0  0  0  0  0  0  0  0
    1.4066    1.7268    0.1587 H   0  0  0  0  0  0  0  0  0  0  0  0
   -2.1010   -1.3394    0.1464 H   0  0  0  0  0  0  0  0  0  0  0  0
   -1.0043   -0.2558    1.9652 H   0  0  0  0  0  0  0  0  0  0  0  0
   -3.5836    2.9632    0.1731 H   0  0  0  0  0  0  0  0  0  0  0  0
   -3.3858    0.8009   -0.7081 H   0  0  0  0  0  0  0  0  0  0  0  0
  1  7  1  0
  2  3  2  0
  2  4  1  0
  3  5  1  0
  4  6  2  0
  5  8  2  0
  6  8  1  0
  7  9  1  0
  7 12  1  0
  8  9  1  0
  9 13  1  0
 10 11  2  3
 10 12  1  0
 10 13  1  0
  1 14  1  0
  1 15  1  0
  1 16  1  0
  2 17  1  0
  3 18  1  0
  4 19  1  0
  5 20  1  0
  6 21  1  0
  7 22  1  0
  9 23  1  0
 11 24  1  0
 12 25  1  0
M  END
