
     RDKit          3D

 26 27  0  0  0  0  0  0  0  0999 V2000
   -2.5447   -0.9850   -0.8096 C   0  0  0  0  0  0  0  0  0  0  0  0
   -1.4633    0.7863    0.6891 C   0  0  0  0  0  0  0  0  0  0  0  0
    0.9114    0.9797   -0.0940 C   0  0  0  0  0  0  0  0  0  0  0  0
    1.6936   -1.3607    1.2758 C   0  0  0  0  0  0  0  0  0  0  0  0
    4.3124    0.1783   -0.4947 C   0  0  0  0  0  0  0  0  0  0  0  0
   -2.2580    0.5026   -0.6040 C   0  0  0  0  0  0  0  0  0  0  0  0
   -0.0410    0.2624    0.6587 C   0  0  0  0  0  0  0  0  0  0  0  0
    0.3686   -0.9112    1.3402 C   0  0  0  0  0  0  0  0  0  0  0  0
    2.2074    0.5117   -0.1379 C   0  0  0  0  0  0  0  0  0  0  0  0
    2.5869   -0.6265    0.5286 C   0  0  0  0  0  0  0  0  0  0  0  0
   -0.7339   -1.8560    2.2790 Cl  0  0  0  0  0  0  0  0  0  0  0  0
   -3.5307    1.2368   -0.5653 N   0  0  0  0  0  0  0  0  0  0  0  0
    3.2368    1.0851   -0.8152 O   0  0  0  0  0  0  0  0  0  0  0  0
    3.9046   -0.9143    0.3555 O   0  0  0  0  0  0  0  0  0  0  0  0
   -3.1407   -1.1470   -1.7150 H   0  0  0  0  0  0  0  0  0  0  0  0
   -1.6173   -1.5535   -0.9309 H   0  0  0  0  0  0  0  0  0  0  0  0
   -3.0978   -1.4088    0.0358 H   0  0  0  0  0  0  0  0  0  0  0  0
   -2.0081    0.4105    1.5626 H   0  0  0  0  0  0  0  0  0  0  0  0
   -1.4055    1.8731    0.8476 H   0  0  0  0  0  0  0  0  0  0  0  0
    0.6422    1.8851   -0.6303 H   0  0  0  0  0  0  0  0  0  0  0  0
    2.0156   -2.2571    1.7937 H   0  0  0  0  0  0  0  0  0  0  0  0
    4.7132   -0.2342   -1.4277 H   0  0  0  0  0  0  0  0  0  0  0  0
    5.1059    0.7398    0.0119 H   0  0  0  0  0  0  0  0  0  0  0  0
   -1.6929    0.8701   -1.4687 H   0  0  0  0  0  0  0  0  0  0  0  0
   -4.1070    0.8845    0.1995 H   0  0  0  0  0  0  0  0  0  0  0  0
   -4.0576    1.0485   -1.4182 H   0  0  0  0  0  0  0  0  0  0  0  0
  1  6  1  0
  2  6  1  0
  2  7  1  0
  3  7  2  0
  3  9  1  0
  4  8  2  0
  4 10  1  0
  5 13  1  0
  5 14  1  0
  6 12  1  0
  7  8  1  0
  8 11  1  0
  9 10  2  0
  9 13  1  0
 10 14  1  0
  1 15  1  0
  1 16  1  0
  1 17  1  0
  2 18  1  0
  2 19  1  0
  3 20  1  0
  4 21  1  0
  5 22  1  0
  5 23  1  0
  6 24  1  0
 12 25  1  0
 12 26  1  0
M  END
