
     RDKit          3D

 26 26  0  0  0  0  0  0  0  0999 V2000
    3.2474   -1.5592   -0.0820 C   0  0  0  0  0  0  0  0  0  0  0  0
   -3.1514    2.1470    0.4237 C   0  0  0  0  0  0  0  0  0  0  0  0
   -1.3771   -2.5453   -1.6958 C   0  0  0  0  0  0  0  0  0  0  0  0
   -0.4069    1.5076    0.7181 C   0  0  0  0  0  0  0  0  0  0  0  0
    0.5079   -0.8969   -0.3650 C   0  0  0  0  0  0  0  0  0  0  0  0
    1.8199    2.1135    1.5635 C   0  0  0  0  0  0  0  0  0  0  0  0
    0.9457    1.1490    0.8399 C   0  0  0  0  0  0  0  0  0  0  0  0
    1.4145   -0.0582    0.2983 C   0  0  0  0  0  0  0  0  0  0  0  0
   -1.3045    0.6674    0.0561 C   0  0  0  0  0  0  0  0  0  0  0  0
   -0.8435   -0.5450   -0.4902 C   0  0  0  0  0  0  0  0  0  0  0  0
    3.0171    1.9721    1.7676 O   0  0  0  0  0  0  0  0  0  0  0  0
    2.7420   -0.3449    0.4528 O   0  0  0  0  0  0  0  0  0  0  0  0
   -2.6401    0.9346   -0.1109 O   0  0  0  0  0  0  0  0  0  0  0  0
   -1.7898   -1.3123   -1.1243 O   0  0  0  0  0  0  0  0  0  0  0  0
    2.7715   -2.4258    0.3885 H   0  0  0  0  0  0  0  0  0  0  0  0
    4.3172   -1.6047    0.1433 H   0  0  0  0  0  0  0  0  0  0  0  0
    3.1355   -1.5877   -1.1707 H   0  0  0  0  0  0  0  0  0  0  0  0
   -2.6782    3.0157   -0.0456 H   0  0  0  0  0  0  0  0  0  0  0  0
   -3.0410    2.1756    1.5127 H   0  0  0  0  0  0  0  0  0  0  0  0
   -4.2211    2.1882    0.1968 H   0  0  0  0  0  0  0  0  0  0  0  0
   -2.2547   -3.0124   -2.1531 H   0  0  0  0  0  0  0  0  0  0  0  0
   -0.9989   -3.2290   -0.9288 H   0  0  0  0  0  0  0  0  0  0  0  0
   -0.6362   -2.3858   -2.4860 H   0  0  0  0  0  0  0  0  0  0  0  0
   -0.7417    2.4464    1.1462 H   0  0  0  0  0  0  0  0  0  0  0  0
    0.8551   -1.8306   -0.7875 H   0  0  0  0  0  0  0  0  0  0  0  0
    1.3112    3.0204    1.9325 H   0  0  0  0  0  0  0  0  0  0  0  0
  1 12  1  0
  2 13  1  0
  3 14  1  0
  4  7  2  0
  4  9  1  0
  5  8  2  0
  5 10  1  0
  6  7  1  0
  6 11  2  0
  7  8  1  0
  8 12  1  0
  9 10  2  0
  9 13  1  0
 10 14  1  0
  1 15  1  0
  1 16  1  0
  1 17  1  0
  2 18  1  0
  2 19  1  0
  2 20  1  0
  3 21  1  0
  3 22  1  0
  3 23  1  0
  4 24  1  0
  5 25  1  0
  6 26  1  0
M  END
