
     RDKit          3D

 27 27  0  0  0  0  0  0  0  0999 V2000
   -3.8387   -0.5058   -0.7975 C   0  0  0  0  0  0  0  0  0  0  0  0
    4.4233   -0.6851    0.3425 C   0  0  0  0  0  0  0  0  0  0  0  0
   -1.7268    0.8084   -0.3730 C   0  0  0  0  0  0  0  0  0  0  0  0
    0.5966    0.6374   -1.3610 C   0  0  0  0  0  0  0  0  0  0  0  0
    0.3783    0.8693    1.0319 C   0  0  0  0  0  0  0  0  0  0  0  0
   -2.3768   -0.5918   -0.3577 C   0  0  0  0  0  0  0  0  0  0  0  0
   -0.2215    0.7749   -0.2313 C   0  0  0  0  0  0  0  0  0  0  0  0
    1.9885    0.5927   -1.2290 C   0  0  0  0  0  0  0  0  0  0  0  0
    1.7695    0.8255    1.1651 C   0  0  0  0  0  0  0  0  0  0  0  0
    2.5820    0.6625    0.0369 C   0  0  0  0  0  0  0  0  0  0  0  0
    2.9363    0.4581   -2.6680 Cl  0  0  0  0  0  0  0  0  0  0  0  0
    2.4408    0.9876    2.7493 Cl  0  0  0  0  0  0  0  0  0  0  0  0
   -2.3103   -1.2020    0.9758 N   0  0  0  0  0  0  0  0  0  0  0  0
    3.9501    0.6512    0.1620 O   0  0  0  0  0  0  0  0  0  0  0  0
   -4.4221    0.1393   -0.1308 H   0  0  0  0  0  0  0  0  0  0  0  0
   -3.9135   -0.0978   -1.8113 H   0  0  0  0  0  0  0  0  0  0  0  0
   -4.3065   -1.4966   -0.8057 H   0  0  0  0  0  0  0  0  0  0  0  0
    4.1817   -1.3159   -0.5194 H   0  0  0  0  0  0  0  0  0  0  0  0
    4.0231   -1.1328    1.2582 H   0  0  0  0  0  0  0  0  0  0  0  0
    5.5126   -0.6431    0.4354 H   0  0  0  0  0  0  0  0  0  0  0  0
   -1.9696    1.3176   -1.3155 H   0  0  0  0  0  0  0  0  0  0  0  0
   -2.1563    1.4411    0.4156 H   0  0  0  0  0  0  0  0  0  0  0  0
    0.1488    0.5699   -2.3503 H   0  0  0  0  0  0  0  0  0  0  0  0
   -0.2446    0.9725    1.9183 H   0  0  0  0  0  0  0  0  0  0  0  0
   -1.8440   -1.2475   -1.0570 H   0  0  0  0  0  0  0  0  0  0  0  0
   -2.7332   -2.1296    0.9484 H   0  0  0  0  0  0  0  0  0  0  0  0
   -2.8677   -0.6601    1.6354 H   0  0  0  0  0  0  0  0  0  0  0  0
  1  6  1  0
  2 14  1  0
  3  6  1  0
  3  7  1  0
  4  7  2  0
  4  8  1  0
  5  7  1  0
  5  9  2  0
  6 13  1  0
  8 10  2  0
  8 11  1  0
  9 10  1  0
  9 12  1  0
 10 14  1  0
  1 15  1  0
  1 16  1  0
  1 17  1  0
  2 18  1  0
  2 19  1  0
  2 20  1  0
  3 21  1  0
  3 22  1  0
  4 23  1  0
  5 24  1  0
  6 25  1  0
 13 26  1  0
 13 27  1  0
M  END
