
     RDKit          3D

 25 26  0  0  0  0  0  0  0  0999 V2000
    3.1357   -0.6834   -0.3336 C   0  0  0  0  0  0  0  0  0  0  0  0
    1.9648   -1.4020   -0.5612 C   0  0  0  0  0  0  0  0  0  0  0  0
    3.0623    0.6184    0.1487 C   0  0  0  0  0  0  0  0  0  0  0  0
   -0.5229   -1.6656   -0.5519 C   0  0  0  0  0  0  0  0  0  0  0  0
   -1.8078   -0.8470   -0.6386 C   0  0  0  0  0  0  0  0  0  0  0  0
   -0.7175    1.1178    0.4866 C   0  0  0  0  0  0  0  0  0  0  0  0
    0.7078   -0.8263   -0.3085 C   0  0  0  0  0  0  0  0  0  0  0  0
   -1.8859    0.1193    0.5413 C   0  0  0  0  0  0  0  0  0  0  0  0
    0.6276    0.4843    0.2093 C   0  0  0  0  0  0  0  0  0  0  0  0
    1.8217    1.1961    0.4094 C   0  0  0  0  0  0  0  0  0  0  0  0
   -3.1661    0.8358    0.5419 N   0  0  0  0  0  0  0  0  0  0  0  0
    1.8568    2.4863    0.8607 O   0  0  0  0  0  0  0  0  0  0  0  0
    4.1030   -1.1353   -0.5345 H   0  0  0  0  0  0  0  0  0  0  0  0
    2.0350   -2.4199   -0.9393 H   0  0  0  0  0  0  0  0  0  0  0  0
    3.9713    1.1885    0.3200 H   0  0  0  0  0  0  0  0  0  0  0  0
   -0.4077   -2.2332   -1.4832 H   0  0  0  0  0  0  0  0  0  0  0  0
   -0.6077   -2.3902    0.2678 H   0  0  0  0  0  0  0  0  0  0  0  0
   -1.8309   -0.2915   -1.5858 H   0  0  0  0  0  0  0  0  0  0  0  0
   -2.6677   -1.5278   -0.6457 H   0  0  0  0  0  0  0  0  0  0  0  0
   -0.8971    1.8617   -0.3014 H   0  0  0  0  0  0  0  0  0  0  0  0
   -0.6847    1.6493    1.4461 H   0  0  0  0  0  0  0  0  0  0  0  0
   -1.8211   -0.4517    1.4766 H   0  0  0  0  0  0  0  0  0  0  0  0
   -3.2927    1.3186   -0.3479 H   0  0  0  0  0  0  0  0  0  0  0  0
   -3.9308    0.1633    0.6022 H   0  0  0  0  0  0  0  0  0  0  0  0
    0.9546    2.8347    0.9211 H   0  0  0  0  0  0  0  0  0  0  0  0
  1  2  2  0
  1  3  1  0
  2  7  1  0
  3 10  2  0
  4  5  1  0
  4  7  1  0
  5  8  1  0
  6  8  1  0
  6  9  1  0
  7  9  2  0
  8 11  1  0
  9 10  1  0
 10 12  1  0
  1 13  1  0
  2 14  1  0
  3 15  1  0
  4 16  1  0
  4 17  1  0
  5 18  1  0
  5 19  1  0
  6 20  1  0
  6 21  1  0
  8 22  1  0
 11 23  1  0
 11 24  1  0
 12 25  1  0
M  END
