
     RDKit          3D

 26 27  0  0  0  0  0  0  0  0999 V2000
    3.1002   -0.6072    1.2226 C   0  0  0  0  0  0  0  0  0  0  0  0
    3.1782    0.7579   -0.7598 C   0  0  0  0  0  0  0  0  0  0  0  0
    1.7032   -0.5809    1.1760 C   0  0  0  0  0  0  0  0  0  0  0  0
    1.7791    0.7814   -0.7991 C   0  0  0  0  0  0  0  0  0  0  0  0
   -2.5160   -1.1936    0.3242 C   0  0  0  0  0  0  0  0  0  0  0  0
   -2.6084    1.1105   -0.3464 C   0  0  0  0  0  0  0  0  0  0  0  0
   -0.9961   -1.2458    0.0404 C   0  0  0  0  0  0  0  0  0  0  0  0
   -1.0963    1.1038   -0.6671 C   0  0  0  0  0  0  0  0  0  0  0  0
    3.8251    0.0618    0.2498 C   0  0  0  0  0  0  0  0  0  0  0  0
    1.0086    0.1032    0.1599 C   0  0  0  0  0  0  0  0  0  0  0  0
    5.1636    0.0412    0.2883 F   0  0  0  0  0  0  0  0  0  0  0  0
   -3.2424   -0.2123   -0.5042 N   0  0  0  0  0  0  0  0  0  0  0  0
   -0.3953    0.1057    0.1698 N   0  0  0  0  0  0  0  0  0  0  0  0
    3.6181   -1.1363    2.0151 H   0  0  0  0  0  0  0  0  0  0  0  0
    3.7608    1.2794   -1.5120 H   0  0  0  0  0  0  0  0  0  0  0  0
    1.1494   -1.0817    1.9663 H   0  0  0  0  0  0  0  0  0  0  0  0
    1.3100    1.3302   -1.6096 H   0  0  0  0  0  0  0  0  0  0  0  0
   -2.6785   -0.9582    1.3838 H   0  0  0  0  0  0  0  0  0  0  0  0
   -2.9453   -2.1856    0.1464 H   0  0  0  0  0  0  0  0  0  0  0  0
   -2.7637    1.4656    0.6803 H   0  0  0  0  0  0  0  0  0  0  0  0
   -3.1110    1.8202   -1.0125 H   0  0  0  0  0  0  0  0  0  0  0  0
   -0.5521   -1.9576    0.7452 H   0  0  0  0  0  0  0  0  0  0  0  0
   -0.8234   -1.6300   -0.9738 H   0  0  0  0  0  0  0  0  0  0  0  0
   -0.9567    0.8769   -1.7320 H   0  0  0  0  0  0  0  0  0  0  0  0
   -0.7035    2.1086   -0.4695 H   0  0  0  0  0  0  0  0  0  0  0  0
   -4.2077   -0.1574   -0.1820 H   0  0  0  0  0  0  0  0  0  0  0  0
  1  3  2  0
  1  9  1  0
  2  4  1  0
  2  9  2  0
  3 10  1  0
  4 10  2  0
  5  7  1  0
  5 12  1  0
  6  8  1  0
  6 12  1  0
  7 13  1  0
  8 13  1  0
  9 11  1  0
 10 13  1  0
  1 14  1  0
  2 15  1  0
  3 16  1  0
  4 17  1  0
  5 18  1  0
  5 19  1  0
  6 20  1  0
  6 21  1  0
  7 22  1  0
  7 23  1  0
  8 24  1  0
  8 25  1  0
 12 26  1  0
M  END
