
     RDKit          3D

 27 28  0  0  0  0  0  0  0  0999 V2000
   -4.2954   -0.9691    0.0516 C   0  0  0  0  0  0  0  0  0  0  0  0
   -0.1116   -1.3973   -0.5519 C   0  0  0  0  0  0  0  0  0  0  0  0
   -1.5050   -1.2969   -0.3602 C   0  0  0  0  0  0  0  0  0  0  0  0
    2.2068   -0.3748   -0.6273 C   0  0  0  0  0  0  0  0  0  0  0  0
    2.9430   -0.4999    0.7117 C   0  0  0  0  0  0  0  0  0  0  0  0
   -0.3764    2.9846    0.3451 C   0  0  0  0  0  0  0  0  0  0  0  0
    0.7180   -0.2722   -0.4416 C   0  0  0  0  0  0  0  0  0  0  0  0
   -2.0989   -0.0695   -0.0492 C   0  0  0  0  0  0  0  0  0  0  0  0
    0.1028    0.9276   -0.1275 C   0  0  0  0  0  0  0  0  0  0  0  0
   -1.2594    1.0271    0.0610 C   0  0  0  0  0  0  0  0  0  0  0  0
    4.3912   -0.6115    0.5320 N   0  0  0  0  0  0  0  0  0  0  0  0
   -3.4291    0.1519    0.1589 O   0  0  0  0  0  0  0  0  0  0  0  0
    0.7358    2.1234    0.0336 O   0  0  0  0  0  0  0  0  0  0  0  0
   -1.6417    2.3023    0.3610 O   0  0  0  0  0  0  0  0  0  0  0  0
   -4.0531   -1.7288    0.8020 H   0  0  0  0  0  0  0  0  0  0  0  0
   -4.2730   -1.3903   -0.9590 H   0  0  0  0  0  0  0  0  0  0  0  0
   -5.3155   -0.6237    0.2454 H   0  0  0  0  0  0  0  0  0  0  0  0
    0.3163   -2.3702   -0.7880 H   0  0  0  0  0  0  0  0  0  0  0  0
   -2.0940   -2.2031   -0.4609 H   0  0  0  0  0  0  0  0  0  0  0  0
    2.4356   -1.2400   -1.2631 H   0  0  0  0  0  0  0  0  0  0  0  0
    2.5650    0.5038   -1.1794 H   0  0  0  0  0  0  0  0  0  0  0  0
    2.5895   -1.3831    1.2563 H   0  0  0  0  0  0  0  0  0  0  0  0
    2.7356    0.3678    1.3481 H   0  0  0  0  0  0  0  0  0  0  0  0
   -0.4183    3.7860   -0.4015 H   0  0  0  0  0  0  0  0  0  0  0  0
   -0.2063    3.4334    1.3306 H   0  0  0  0  0  0  0  0  0  0  0  0
    4.6021   -1.3977   -0.0810 H   0  0  0  0  0  0  0  0  0  0  0  0
    4.7361    0.2204    0.0536 H   0  0  0  0  0  0  0  0  0  0  0  0
  1 12  1  0
  2  3  2  0
  2  7  1  0
  3  8  1  0
  4  5  1  0
  4  7  1  0
  5 11  1  0
  6 13  1  0
  6 14  1  0
  7  9  2  0
  8 10  2  0
  8 12  1  0
  9 10  1  0
  9 13  1  0
 10 14  1  0
  1 15  1  0
  1 16  1  0
  1 17  1  0
  2 18  1  0
  3 19  1  0
  4 20  1  0
  4 21  1  0
  5 22  1  0
  5 23  1  0
  6 24  1  0
  6 25  1  0
 11 26  1  0
 11 27  1  0
M  END
