
     RDKit          3D

 25 26  0  0  0  0  0  0  0  0999 V2000
    4.4622    0.3037    0.4925 C   0  0  0  0  0  0  0  0  0  0  0  0
    0.4323    0.2843   -1.5415 C   0  0  0  0  0  0  0  0  0  0  0  0
    1.7090   -0.1376   -1.1566 C   0  0  0  0  0  0  0  0  0  0  0  0
   -2.0541    0.4699   -0.8369 C   0  0  0  0  0  0  0  0  0  0  0  0
   -1.6773   -0.5411    1.3849 C   0  0  0  0  0  0  0  0  0  0  0  0
    0.8654   -0.8699    1.0028 C   0  0  0  0  0  0  0  0  0  0  0  0
   -0.6070    0.1362   -0.6403 C   0  0  0  0  0  0  0  0  0  0  0  0
   -0.3937   -0.4365    0.6179 C   0  0  0  0  0  0  0  0  0  0  0  0
   -2.5650    0.4712    0.6237 C   0  0  0  0  0  0  0  0  0  0  0  0
    1.9329   -0.7035    0.1129 C   0  0  0  0  0  0  0  0  0  0  0  0
   -3.9941    0.1844    0.7462 N   0  0  0  0  0  0  0  0  0  0  0  0
    3.5576   -1.2629    0.5992 S   0  0  0  0  0  0  0  0  0  0  0  0
    3.9804    1.0678    1.1089 H   0  0  0  0  0  0  0  0  0  0  0  0
    4.5187    0.6524   -0.5419 H   0  0  0  0  0  0  0  0  0  0  0  0
    5.4808    0.1530    0.8602 H   0  0  0  0  0  0  0  0  0  0  0  0
    0.2660    0.7081   -2.5267 H   0  0  0  0  0  0  0  0  0  0  0  0
    2.5289   -0.0386   -1.8639 H   0  0  0  0  0  0  0  0  0  0  0  0
   -2.1986    1.4461   -1.3095 H   0  0  0  0  0  0  0  0  0  0  0  0
   -2.5331   -0.3097   -1.4398 H   0  0  0  0  0  0  0  0  0  0  0  0
   -2.0642   -1.5640    1.3155 H   0  0  0  0  0  0  0  0  0  0  0  0
   -1.5613   -0.2581    2.4355 H   0  0  0  0  0  0  0  0  0  0  0  0
    1.0149   -1.3281    1.9760 H   0  0  0  0  0  0  0  0  0  0  0  0
   -2.3846    1.4688    1.0493 H   0  0  0  0  0  0  0  0  0  0  0  0
   -4.5236    0.8440    0.1771 H   0  0  0  0  0  0  0  0  0  0  0  0
   -4.1926   -0.7398    0.3629 H   0  0  0  0  0  0  0  0  0  0  0  0
  1 12  1  0
  2  3  2  0
  2  7  1  0
  3 10  1  0
  4  7  1  0
  4  9  1  0
  5  8  1  0
  5  9  1  0
  6  8  1  0
  6 10  2  0
  7  8  2  0
  9 11  1  0
 10 12  1  0
  1 13  1  0
  1 14  1  0
  1 15  1  0
  2 16  1  0
  3 17  1  0
  4 18  1  0
  4 19  1  0
  5 20  1  0
  5 21  1  0
  6 22  1  0
  9 23  1  0
 11 24  1  0
 11 25  1  0
M  END
