
     RDKit          3D

 30 30  0  0  0  0  0  0  0  0999 V2000
   -2.5154   -2.9183    0.7587 C   0  0  0  0  0  0  0  0  0  0  0  0
    3.3279    1.4594   -0.4993 C   0  0  0  0  0  0  0  0  0  0  0  0
   -1.8794    1.0614   -0.2763 C   0  0  0  0  0  0  0  0  0  0  0  0
   -1.6537    2.4952   -0.7876 C   0  0  0  0  0  0  0  0  0  0  0  0
    0.6452    0.5871   -0.2558 C   0  0  0  0  0  0  0  0  0  0  0  0
    0.1577   -2.0938    0.3787 C   0  0  0  0  0  0  0  0  0  0  0  0
   -0.6835    0.1336   -0.1093 C   0  0  0  0  0  0  0  0  0  0  0  0
    1.4605   -1.6075    0.2116 C   0  0  0  0  0  0  0  0  0  0  0  0
   -0.9177   -1.2214    0.2220 C   0  0  0  0  0  0  0  0  0  0  0  0
    1.7349   -0.2731   -0.0933 C   0  0  0  0  0  0  0  0  0  0  0  0
   -0.9946    3.3635    0.1895 N   0  0  0  0  0  0  0  0  0  0  0  0
    2.5484   -2.5495    0.3724 N   0  0  0  0  0  4  0  0  0  0  0  0
    2.6875   -3.0560    1.4954 O   0  0  0  0  0  1  0  0  0  0  0  0
    3.2144   -2.8315   -0.6332 O   0  0  0  0  0  0  0  0  0  0  0  0
   -2.2335   -1.5813    0.3628 O   0  0  0  0  0  0  0  0  0  0  0  0
    3.0464    0.0994   -0.1894 O   0  0  0  0  0  0  0  0  0  0  0  0
   -2.0753   -3.1426    1.7359 H   0  0  0  0  0  0  0  0  0  0  0  0
   -3.6012   -3.0167    0.8522 H   0  0  0  0  0  0  0  0  0  0  0  0
   -2.1809   -3.6321   -0.0011 H   0  0  0  0  0  0  0  0  0  0  0  0
    4.4153    1.5729   -0.5438 H   0  0  0  0  0  0  0  0  0  0  0  0
    2.9245    1.7324   -1.4799 H   0  0  0  0  0  0  0  0  0  0  0  0
    2.9555    2.1274    0.2843 H   0  0  0  0  0  0  0  0  0  0  0  0
   -2.5613    0.5845   -0.9936 H   0  0  0  0  0  0  0  0  0  0  0  0
   -2.4082    1.1108    0.6850 H   0  0  0  0  0  0  0  0  0  0  0  0
   -2.6303    2.9346   -1.0224 H   0  0  0  0  0  0  0  0  0  0  0  0
   -1.0739    2.4861   -1.7170 H   0  0  0  0  0  0  0  0  0  0  0  0
    0.8145    1.6335   -0.4871 H   0  0  0  0  0  0  0  0  0  0  0  0
    0.0167   -3.1410    0.6254 H   0  0  0  0  0  0  0  0  0  0  0  0
   -1.0171    4.3259   -0.1472 H   0  0  0  0  0  0  0  0  0  0  0  0
   -1.5231    3.3570    1.0622 H   0  0  0  0  0  0  0  0  0  0  0  0
  1 15  1  0
  2 16  1  0
  3  4  1  0
  3  7  1  0
  4 11  1  0
  5  7  2  0
  5 10  1  0
  6  8  1  0
  6  9  2  0
  7  9  1  0
  8 10  2  0
  8 12  1  0
  9 15  1  0
 10 16  1  0
 12 13  1  0
 12 14  2  0
  1 17  1  0
  1 18  1  0
  1 19  1  0
  2 20  1  0
  2 21  1  0
  2 22  1  0
  3 23  1  0
  3 24  1  0
  4 25  1  0
  4 26  1  0
  5 27  1  0
  6 28  1  0
 11 29  1  0
 11 30  1  0
M  CHG  2  12   1  13  -1
M  END
