
     RDKit          3D

 27 27  0  0  0  0  0  0  0  0999 V2000
   -3.7457    0.7307   -0.4071 C   0  0  0  0  0  0  0  0  0  0  0  0
    4.0803    1.1062    1.1530 C   0  0  0  0  0  0  0  0  0  0  0  0
    2.5624   -1.0633    0.1410 C   0  0  0  0  0  0  0  0  0  0  0  0
    1.7560   -2.0800   -0.3786 C   0  0  0  0  0  0  0  0  0  0  0  0
   -1.4766   -0.1097   -1.1220 C   0  0  0  0  0  0  0  0  0  0  0  0
    0.7604    0.4949   -0.1819 C   0  0  0  0  0  0  0  0  0  0  0  0
   -2.4385    0.0987    0.0700 C   0  0  0  0  0  0  0  0  0  0  0  0
   -0.0742   -0.5135   -0.7089 C   0  0  0  0  0  0  0  0  0  0  0  0
    2.0668    0.2318    0.2413 C   0  0  0  0  0  0  0  0  0  0  0  0
    0.4462   -1.8134   -0.8022 C   0  0  0  0  0  0  0  0  0  0  0  0
   -0.6286   -3.4515   -1.5566 I   0  0  0  0  0  0  0  0  0  0  0  0
   -2.7552   -1.1607    0.7504 N   0  0  0  0  0  0  0  0  0  0  0  0
    2.7397    1.3177    0.7278 O   0  0  0  0  0  0  0  0  0  0  0  0
   -4.2600    0.0909   -1.1331 H   0  0  0  0  0  0  0  0  0  0  0  0
   -4.4279    0.9073    0.4320 H   0  0  0  0  0  0  0  0  0  0  0  0
   -3.5554    1.6975   -0.8856 H   0  0  0  0  0  0  0  0  0  0  0  0
    4.7095    0.7690    0.3226 H   0  0  0  0  0  0  0  0  0  0  0  0
    4.1217    0.4038    1.9919 H   0  0  0  0  0  0  0  0  0  0  0  0
    4.4755    2.0651    1.5020 H   0  0  0  0  0  0  0  0  0  0  0  0
    3.5684   -1.3198    0.4552 H   0  0  0  0  0  0  0  0  0  0  0  0
    2.1685   -3.0845   -0.4478 H   0  0  0  0  0  0  0  0  0  0  0  0
   -1.3929    0.8328   -1.6820 H   0  0  0  0  0  0  0  0  0  0  0  0
   -1.9073   -0.8113   -1.8433 H   0  0  0  0  0  0  0  0  0  0  0  0
    0.3879    1.5152   -0.0984 H   0  0  0  0  0  0  0  0  0  0  0  0
   -1.9778    0.7750    0.8002 H   0  0  0  0  0  0  0  0  0  0  0  0
   -1.8916   -1.5948    1.0775 H   0  0  0  0  0  0  0  0  0  0  0  0
   -3.3118   -0.9711    1.5826 H   0  0  0  0  0  0  0  0  0  0  0  0
  1  7  1  0
  2 13  1  0
  3  4  2  0
  3  9  1  0
  4 10  1  0
  5  7  1  0
  5  8  1  0
  6  8  1  0
  6  9  2  0
  7 12  1  0
  8 10  2  0
  9 13  1  0
 10 11  1  0
  1 14  1  0
  1 15  1  0
  1 16  1  0
  2 17  1  0
  2 18  1  0
  2 19  1  0
  3 20  1  0
  4 21  1  0
  5 22  1  0
  5 23  1  0
  6 24  1  0
  7 25  1  0
 12 26  1  0
 12 27  1  0
M  END
