
     RDKit          3D

 28 28  0  0  0  0  0  0  0  0999 V2000
   -3.2744    0.5971    1.4713 C   0  0  0  0  0  0  0  0  0  0  0  0
   -3.0823   -0.3372    0.2836 C   0  0  0  0  0  0  0  0  0  0  0  0
    1.3678   -0.1662   -1.5654 C   0  0  0  0  0  0  0  0  0  0  0  0
    2.7549   -0.3306   -1.5287 C   0  0  0  0  0  0  0  0  0  0  0  0
   -0.8204    0.5725   -0.5176 C   0  0  0  0  0  0  0  0  0  0  0  0
    1.4039    0.7600    0.6723 C   0  0  0  0  0  0  0  0  0  0  0  0
    0.6817    0.3921   -0.4735 C   0  0  0  0  0  0  0  0  0  0  0  0
   -1.6051   -0.6614   -0.0137 C   0  0  0  0  0  0  0  0  0  0  0  0
    3.4537    0.0613   -0.3974 C   0  0  0  0  0  0  0  0  0  0  0  0
    2.7798    0.5766    0.7055 C   0  0  0  0  0  0  0  0  0  0  0  0
   -1.5649   -1.7392   -1.0171 N   0  0  0  0  0  0  0  0  0  0  0  0
    4.8152   -0.0391   -0.3913 O   0  0  0  0  0  0  0  0  0  0  0  0
    3.4595    0.8783    1.8509 O   0  0  0  0  0  0  0  0  0  0  0  0
   -2.9005    1.6030    1.2632 H   0  0  0  0  0  0  0  0  0  0  0  0
   -2.7639    0.2130    2.3600 H   0  0  0  0  0  0  0  0  0  0  0  0
   -4.3401    0.6870    1.7066 H   0  0  0  0  0  0  0  0  0  0  0  0
   -3.6212   -1.2677    0.5055 H   0  0  0  0  0  0  0  0  0  0  0  0
   -3.5619    0.1014   -0.6006 H   0  0  0  0  0  0  0  0  0  0  0  0
    0.8185   -0.4805   -2.4504 H   0  0  0  0  0  0  0  0  0  0  0  0
    3.2801   -0.7495   -2.3812 H   0  0  0  0  0  0  0  0  0  0  0  0
   -1.1280    0.8337   -1.5393 H   0  0  0  0  0  0  0  0  0  0  0  0
   -1.0616    1.4555    0.0850 H   0  0  0  0  0  0  0  0  0  0  0  0
    0.8972    1.1704    1.5411 H   0  0  0  0  0  0  0  0  0  0  0  0
   -1.1375   -1.0427    0.9026 H   0  0  0  0  0  0  0  0  0  0  0  0
   -2.0775   -1.4557   -1.8508 H   0  0  0  0  0  0  0  0  0  0  0  0
   -2.0444   -2.5617   -0.6532 H   0  0  0  0  0  0  0  0  0  0  0  0
    5.1352    0.7467    0.0886 H   0  0  0  0  0  0  0  0  0  0  0  0
    4.1364    0.1827    1.9441 H   0  0  0  0  0  0  0  0  0  0  0  0
  1  2  1  0
  2  8  1  0
  3  4  2  0
  3  7  1  0
  4  9  1  0
  5  7  1  0
  5  8  1  0
  6  7  2  0
  6 10  1  0
  8 11  1  0
  9 10  2  0
  9 12  1  0
 10 13  1  0
  1 14  1  0
  1 15  1  0
  1 16  1  0
  2 17  1  0
  2 18  1  0
  3 19  1  0
  4 20  1  0
  5 21  1  0
  5 22  1  0
  6 23  1  0
  8 24  1  0
 11 25  1  0
 11 26  1  0
 12 27  1  0
 13 28  1  0
M  END
