
     RDKit          3D

 28 28  0  0  0  0  0  0  0  0999 V2000
   -2.0707   -1.2559   -1.1472 C   0  0  0  0  0  0  0  0  0  0  0  0
    1.2066    3.0868   -0.4992 C   0  0  0  0  0  0  0  0  0  0  0  0
    2.0013   -1.8271    0.2944 C   0  0  0  0  0  0  0  0  0  0  0  0
    0.6244   -1.6483    0.1602 C   0  0  0  0  0  0  0  0  0  0  0  0
    2.3309    0.5400   -0.0729 C   0  0  0  0  0  0  0  0  0  0  0  0
   -2.0766   -0.1672    1.1732 C   0  0  0  0  0  0  0  0  0  0  0  0
   -1.4349   -0.1973   -0.2333 C   0  0  0  0  0  0  0  0  0  0  0  0
    2.8417   -0.7304    0.1726 C   0  0  0  0  0  0  0  0  0  0  0  0
    0.0786   -0.3767   -0.1052 C   0  0  0  0  0  0  0  0  0  0  0  0
    0.9510    0.7299   -0.2063 C   0  0  0  0  0  0  0  0  0  0  0  0
   -3.5049    0.1586    1.1711 N   0  0  0  0  0  0  0  0  0  0  0  0
    4.1947   -0.8569    0.2953 O   0  0  0  0  0  0  0  0  0  0  0  0
    0.3593    1.9471   -0.4288 O   0  0  0  0  0  0  0  0  0  0  0  0
   -1.5253   -1.3342   -2.0945 H   0  0  0  0  0  0  0  0  0  0  0  0
   -2.0854   -2.2469   -0.6819 H   0  0  0  0  0  0  0  0  0  0  0  0
   -3.1057   -0.9920   -1.3888 H   0  0  0  0  0  0  0  0  0  0  0  0
    0.5727    3.9636   -0.6629 H   0  0  0  0  0  0  0  0  0  0  0  0
    1.8968    3.0137   -1.3460 H   0  0  0  0  0  0  0  0  0  0  0  0
    1.7454    3.2382    0.4420 H   0  0  0  0  0  0  0  0  0  0  0  0
    2.3917   -2.8195    0.4952 H   0  0  0  0  0  0  0  0  0  0  0  0
   -0.0220   -2.5156    0.2725 H   0  0  0  0  0  0  0  0  0  0  0  0
    3.0360    1.3598   -0.1510 H   0  0  0  0  0  0  0  0  0  0  0  0
   -1.5659    0.5762    1.7973 H   0  0  0  0  0  0  0  0  0  0  0  0
   -1.9449   -1.1340    1.6735 H   0  0  0  0  0  0  0  0  0  0  0  0
   -1.6377    0.7650   -0.7201 H   0  0  0  0  0  0  0  0  0  0  0  0
   -4.0191   -0.5357    0.6322 H   0  0  0  0  0  0  0  0  0  0  0  0
   -3.6427    1.0487    0.6929 H   0  0  0  0  0  0  0  0  0  0  0  0
    4.4048   -1.7898    0.4659 H   0  0  0  0  0  0  0  0  0  0  0  0
  1  7  1  0
  2 13  1  0
  3  4  2  0
  3  8  1  0
  4  9  1  0
  5  8  2  0
  5 10  1  0
  6  7  1  0
  6 11  1  0
  7  9  1  0
  8 12  1  0
  9 10  2  0
 10 13  1  0
  1 14  1  0
  1 15  1  0
  1 16  1  0
  2 17  1  0
  2 18  1  0
  2 19  1  0
  3 20  1  0
  4 21  1  0
  5 22  1  0
  6 23  1  0
  6 24  1  0
  7 25  1  0
 11 26  1  0
 11 27  1  0
 12 28  1  0
M  END
