
     RDKit          3D

 28 28  0  0  0  0  0  0  0  0999 V2000
   -1.2932   -1.9044   -0.1702 C   0  0  0  0  0  0  0  0  0  0  0  0
   -3.3720    0.4474    0.7433 C   0  0  0  0  0  0  0  0  0  0  0  0
   -1.3414   -0.7313   -1.1429 C   0  0  0  0  0  0  0  0  0  0  0  0
    3.9553   -0.0366   -0.1583 C   0  0  0  0  0  0  0  0  0  0  0  0
    3.4334   -0.1039    1.1316 C   0  0  0  0  0  0  0  0  0  0  0  0
    3.1333    0.3243   -1.2250 C   0  0  0  0  0  0  0  0  0  0  0  0
    2.0857    0.1840    1.3536 C   0  0  0  0  0  0  0  0  0  0  0  0
    1.7831    0.6133   -1.0067 C   0  0  0  0  0  0  0  0  0  0  0  0
    1.2486    0.5336    0.2843 C   0  0  0  0  0  0  0  0  0  0  0  0
   -1.2458    0.6827   -0.5341 C   0  0  0  0  0  0  0  0  0  0  0  0
   -0.1855    0.8298    0.5835 C   0  0  0  0  0  0  0  0  0  0  0  0
   -2.5365    1.2838   -0.1041 N   0  0  0  0  0  0  0  0  0  0  0  0
   -0.4737    1.2099    1.7207 O   0  0  0  0  0  0  0  0  0  0  0  0
   -1.3738   -2.8444   -0.7267 H   0  0  0  0  0  0  0  0  0  0  0  0
   -0.3477   -1.9344    0.3784 H   0  0  0  0  0  0  0  0  0  0  0  0
   -2.1074   -1.8872    0.5556 H   0  0  0  0  0  0  0  0  0  0  0  0
   -2.8424    0.0813    1.6272 H   0  0  0  0  0  0  0  0  0  0  0  0
   -3.7910   -0.3942    0.1847 H   0  0  0  0  0  0  0  0  0  0  0  0
   -4.2236    1.0386    1.0966 H   0  0  0  0  0  0  0  0  0  0  0  0
   -2.2537   -0.8059   -1.7486 H   0  0  0  0  0  0  0  0  0  0  0  0
   -0.5178   -0.8649   -1.8550 H   0  0  0  0  0  0  0  0  0  0  0  0
    5.0059   -0.2581   -0.3313 H   0  0  0  0  0  0  0  0  0  0  0  0
    4.0745   -0.3766    1.9664 H   0  0  0  0  0  0  0  0  0  0  0  0
    3.5472    0.3875   -2.2289 H   0  0  0  0  0  0  0  0  0  0  0  0
    1.6893    0.1331    2.3664 H   0  0  0  0  0  0  0  0  0  0  0  0
    1.1805    0.9121   -1.8587 H   0  0  0  0  0  0  0  0  0  0  0  0
   -0.9268    1.3572   -1.3384 H   0  0  0  0  0  0  0  0  0  0  0  0
   -2.3047    2.1235    0.4361 H   0  0  0  0  0  0  0  0  0  0  0  0
  1  3  1  0
  2 12  1  0
  3 10  1  0
  4  5  2  0
  4  6  1  0
  5  7  1  0
  6  8  2  0
  7  9  2  0
  8  9  1  0
  9 11  1  0
 10 11  1  0
 10 12  1  0
 11 13  2  0
  1 14  1  0
  1 15  1  0
  1 16  1  0
  2 17  1  0
  2 18  1  0
  2 19  1  0
  3 20  1  0
  3 21  1  0
  4 22  1  0
  5 23  1  0
  6 24  1  0
  7 25  1  0
  8 26  1  0
 10 27  1  0
 12 28  1  0
M  END
