
     RDKit          3D

 29 29  0  0  0  0  0  0  0  0999 V2000
    5.7020   -0.1449    0.1042 C   0  0  0  0  0  0  0  0  0  0  0  0
   -4.8885   -0.7710    0.4781 C   0  0  0  0  0  0  0  0  0  0  0  0
    0.1827    0.9396   -1.0117 C   0  0  0  0  0  0  0  0  0  0  0  0
   -0.0482    0.2583    1.3008 C   0  0  0  0  0  0  0  0  0  0  0  0
    1.5715    0.9373   -0.8764 C   0  0  0  0  0  0  0  0  0  0  0  0
    1.3400    0.2537    1.4399 C   0  0  0  0  0  0  0  0  0  0  0  0
   -2.1412    0.5863   -0.0792 C   0  0  0  0  0  0  0  0  0  0  0  0
   -2.6554   -0.8015   -0.4912 C   0  0  0  0  0  0  0  0  0  0  0  0
    4.2436   -0.3189   -0.2009 C   0  0  0  0  0  0  0  0  0  0  0  0
   -0.6387    0.6034    0.0753 C   0  0  0  0  0  0  0  0  0  0  0  0
    2.1369    0.5771    0.3449 C   0  0  0  0  0  0  0  0  0  0  0  0
   -4.1003   -0.8522   -0.7423 N   0  0  0  0  0  0  0  0  0  0  0  0
    3.7985   -1.1565   -0.9732 O   0  0  0  0  0  0  0  0  0  0  0  0
    3.5221    0.6144    0.5357 O   0  0  0  0  0  0  0  0  0  0  0  0
    6.2818   -0.8697   -0.4745 H   0  0  0  0  0  0  0  0  0  0  0  0
    5.8822   -0.3236    1.1671 H   0  0  0  0  0  0  0  0  0  0  0  0
    6.0223    0.8612   -0.1780 H   0  0  0  0  0  0  0  0  0  0  0  0
   -4.6174   -1.5654    1.1809 H   0  0  0  0  0  0  0  0  0  0  0  0
   -5.9474   -0.9001    0.2328 H   0  0  0  0  0  0  0  0  0  0  0  0
   -4.7808    0.1985    0.9731 H   0  0  0  0  0  0  0  0  0  0  0  0
   -0.2555    1.2032   -1.9718 H   0  0  0  0  0  0  0  0  0  0  0  0
   -0.6684   -0.0082    2.1538 H   0  0  0  0  0  0  0  0  0  0  0  0
    2.1993    1.2034   -1.7211 H   0  0  0  0  0  0  0  0  0  0  0  0
    1.7920   -0.0045    2.3925 H   0  0  0  0  0  0  0  0  0  0  0  0
   -2.5961    0.9062    0.8660 H   0  0  0  0  0  0  0  0  0  0  0  0
   -2.4368    1.3353   -0.8252 H   0  0  0  0  0  0  0  0  0  0  0  0
   -2.1560   -1.1039   -1.4202 H   0  0  0  0  0  0  0  0  0  0  0  0
   -2.3758   -1.5566    0.2544 H   0  0  0  0  0  0  0  0  0  0  0  0
   -4.3685   -0.1009   -1.3767 H   0  0  0  0  0  0  0  0  0  0  0  0
  1  9  1  0
  2 12  1  0
  3  5  2  0
  3 10  1  0
  4  6  1  0
  4 10  2  0
  5 11  1  0
  6 11  2  0
  7  8  1  0
  7 10  1  0
  8 12  1  0
  9 13  2  0
  9 14  1  0
 11 14  1  0
  1 15  1  0
  1 16  1  0
  1 17  1  0
  2 18  1  0
  2 19  1  0
  2 20  1  0
  3 21  1  0
  4 22  1  0
  5 23  1  0
  6 24  1  0
  7 25  1  0
  7 26  1  0
  8 27  1  0
  8 28  1  0
 12 29  1  0
M  END
