
     RDKit          3D

 30 31  0  0  0  0  0  0  0  0999 V2000
   -2.5543   -2.8469   -0.3985 C   0  0  0  0  0  0  0  0  0  0  0  0
   -2.8592   -1.5483    0.3379 C   0  0  0  0  0  0  0  0  0  0  0  0
    1.1168    1.0740    1.3010 C   0  0  0  0  0  0  0  0  0  0  0  0
    2.1871    1.9111    0.9698 C   0  0  0  0  0  0  0  0  0  0  0  0
   -0.4383   -0.8769    0.8177 C   0  0  0  0  0  0  0  0  0  0  0  0
    1.4215   -0.1932   -0.7559 C   0  0  0  0  0  0  0  0  0  0  0  0
    4.1491    1.6851   -1.9373 C   0  0  0  0  0  0  0  0  0  0  0  0
    0.7279    0.0168    0.4475 C   0  0  0  0  0  0  0  0  0  0  0  0
   -1.7746   -0.4620    0.1536 C   0  0  0  0  0  0  0  0  0  0  0  0
    2.8450    1.6707   -0.2160 C   0  0  0  0  0  0  0  0  0  0  0  0
    2.4723    0.6480   -1.0556 C   0  0  0  0  0  0  0  0  0  0  0  0
   -2.2260    0.8180    0.7457 N   0  0  0  0  0  0  0  0  0  0  0  0
   -3.3479    1.2732   -0.0596 O   0  0  0  0  0  0  0  0  0  0  0  0
    3.9010    2.3795   -0.6976 O   0  0  0  0  0  0  0  0  0  0  0  0
    3.2470    0.5841   -2.1718 O   0  0  0  0  0  0  0  0  0  0  0  0
   -1.7008   -3.3722    0.0383 H   0  0  0  0  0  0  0  0  0  0  0  0
   -3.4158   -3.5203   -0.3391 H   0  0  0  0  0  0  0  0  0  0  0  0
   -2.3448   -2.6593   -1.4562 H   0  0  0  0  0  0  0  0  0  0  0  0
   -3.0009   -1.7651    1.4041 H   0  0  0  0  0  0  0  0  0  0  0  0
   -3.8223   -1.1815   -0.0378 H   0  0  0  0  0  0  0  0  0  0  0  0
    0.5729    1.2512    2.2268 H   0  0  0  0  0  0  0  0  0  0  0  0
    2.4864    2.7241    1.6208 H   0  0  0  0  0  0  0  0  0  0  0  0
   -0.1635   -1.8976    0.5283 H   0  0  0  0  0  0  0  0  0  0  0  0
   -0.5482   -0.9076    1.9103 H   0  0  0  0  0  0  0  0  0  0  0  0
    1.1471   -0.9905   -1.4381 H   0  0  0  0  0  0  0  0  0  0  0  0
    4.0531    2.3986   -2.7638 H   0  0  0  0  0  0  0  0  0  0  0  0
    5.1753    1.3001   -1.9238 H   0  0  0  0  0  0  0  0  0  0  0  0
   -1.6042   -0.3063   -0.9199 H   0  0  0  0  0  0  0  0  0  0  0  0
   -2.6655    0.6404    1.6525 H   0  0  0  0  0  0  0  0  0  0  0  0
   -3.0362    2.1529   -0.3508 H   0  0  0  0  0  0  0  0  0  0  0  0
  1  2  1  0
  2  9  1  0
  3  4  2  0
  3  8  1  0
  4 10  1  0
  5  8  1  0
  5  9  1  0
  6  8  2  0
  6 11  1  0
  7 14  1  0
  7 15  1  0
  9 12  1  0
 10 11  2  0
 10 14  1  0
 11 15  1  0
 12 13  1  0
  1 16  1  0
  1 17  1  0
  1 18  1  0
  2 19  1  0
  2 20  1  0
  3 21  1  0
  4 22  1  0
  5 23  1  0
  5 24  1  0
  6 25  1  0
  7 26  1  0
  7 27  1  0
  9 28  1  0
 12 29  1  0
 13 30  1  0
M  END
