
     RDKit          3D

 29 29  0  0  0  0  0  0  0  0999 V2000
   -4.3815    0.3440   -0.3286 C   0  0  0  0  0  0  0  0  0  0  0  0
   -0.6168   -0.9513    1.5501 C   0  0  0  0  0  0  0  0  0  0  0  0
   -2.9699   -0.2132   -0.2031 C   0  0  0  0  0  0  0  0  0  0  0  0
    3.6669    1.2349    0.0790 C   0  0  0  0  0  0  0  0  0  0  0  0
    2.2826    1.3037   -0.0900 C   0  0  0  0  0  0  0  0  0  0  0  0
    4.3338    0.0239   -0.1020 C   0  0  0  0  0  0  0  0  0  0  0  0
    0.0492    0.2368   -0.6161 C   0  0  0  0  0  0  0  0  0  0  0  0
    2.2276   -1.0528   -0.6232 C   0  0  0  0  0  0  0  0  0  0  0  0
   -0.7293    0.3315    0.7181 C   0  0  0  0  0  0  0  0  0  0  0  0
    1.5495    0.1612   -0.4421 C   0  0  0  0  0  0  0  0  0  0  0  0
    3.6111   -1.1143   -0.4523 C   0  0  0  0  0  0  0  0  0  0  0  0
    4.5127   -2.7584   -0.6964 Br  0  0  0  0  0  0  0  0  0  0  0  0
   -2.1368    0.7362    0.5314 N   0  0  0  0  0  0  0  0  0  0  0  0
   -4.8284    0.5167    0.6564 H   0  0  0  0  0  0  0  0  0  0  0  0
   -4.3880    1.2903   -0.8800 H   0  0  0  0  0  0  0  0  0  0  0  0
   -5.0190   -0.3639   -0.8682 H   0  0  0  0  0  0  0  0  0  0  0  0
    0.4131   -1.1072    1.8882 H   0  0  0  0  0  0  0  0  0  0  0  0
   -1.2424   -0.8920    2.4478 H   0  0  0  0  0  0  0  0  0  0  0  0
   -0.9170   -1.8370    0.9806 H   0  0  0  0  0  0  0  0  0  0  0  0
   -3.0258   -1.1729    0.3201 H   0  0  0  0  0  0  0  0  0  0  0  0
   -2.5760   -0.3910   -1.2088 H   0  0  0  0  0  0  0  0  0  0  0  0
    4.2254    2.1266    0.3524 H   0  0  0  0  0  0  0  0  0  0  0  0
    1.7779    2.2570    0.0550 H   0  0  0  0  0  0  0  0  0  0  0  0
    5.4111   -0.0215    0.0319 H   0  0  0  0  0  0  0  0  0  0  0  0
   -0.2921   -0.6287   -1.1980 H   0  0  0  0  0  0  0  0  0  0  0  0
   -0.1683    1.1168   -1.2368 H   0  0  0  0  0  0  0  0  0  0  0  0
    1.6752   -1.9496   -0.8937 H   0  0  0  0  0  0  0  0  0  0  0  0
   -0.2796    1.1314    1.3206 H   0  0  0  0  0  0  0  0  0  0  0  0
   -2.1652    1.6429    0.0646 H   0  0  0  0  0  0  0  0  0  0  0  0
  1  3  1  0
  2  9  1  0
  3 13  1  0
  4  5  2  0
  4  6  1  0
  5 10  1  0
  6 11  2  0
  7  9  1  0
  7 10  1  0
  8 10  2  0
  8 11  1  0
  9 13  1  0
 11 12  1  0
  1 14  1  0
  1 15  1  0
  1 16  1  0
  2 17  1  0
  2 18  1  0
  2 19  1  0
  3 20  1  0
  3 21  1  0
  4 22  1  0
  5 23  1  0
  6 24  1  0
  7 25  1  0
  7 26  1  0
  8 27  1  0
  9 28  1  0
 13 29  1  0
M  END
