
     RDKit          3D

 31 31  0  0  0  0  0  0  0  0999 V2000
   -3.8127   -1.1861   -0.4503 C   0  0  0  0  0  0  0  0  0  0  0  0
    0.0257    3.4543    0.6152 C   0  0  0  0  0  0  0  0  0  0  0  0
    4.2241   -2.1344   -0.1821 C   0  0  0  0  0  0  0  0  0  0  0  0
    1.7404    1.2242    0.3887 C   0  0  0  0  0  0  0  0  0  0  0  0
    2.5790    0.1208    0.2148 C   0  0  0  0  0  0  0  0  0  0  0  0
   -1.5997   -0.0716   -0.9510 C   0  0  0  0  0  0  0  0  0  0  0  0
   -2.5058   -0.6700    0.1488 C   0  0  0  0  0  0  0  0  0  0  0  0
   -0.1304   -0.0162   -0.5498 C   0  0  0  0  0  0  0  0  0  0  0  0
    0.3960    1.1663    0.0143 C   0  0  0  0  0  0  0  0  0  0  0  0
    2.0870   -1.0642   -0.3312 C   0  0  0  0  0  0  0  0  0  0  0  0
    0.7295   -1.1306   -0.7089 C   0  0  0  0  0  0  0  0  0  0  0  0
    0.0716   -2.7773   -1.4404 Br  0  0  0  0  0  0  0  0  0  0  0  0
   -2.8408    0.3239    1.1758 N   0  0  0  0  0  0  0  0  0  0  0  0
   -0.4865    2.2017    0.1801 O   0  0  0  0  0  0  0  0  0  0  0  0
    2.8459   -2.1903   -0.5240 O   0  0  0  0  0  0  0  0  0  0  0  0
   -4.4585   -1.6172    0.3230 H   0  0  0  0  0  0  0  0  0  0  0  0
   -3.6158   -1.9708   -1.1888 H   0  0  0  0  0  0  0  0  0  0  0  0
   -4.3697   -0.3853   -0.9500 H   0  0  0  0  0  0  0  0  0  0  0  0
   -0.8019    4.1702    0.6187 H   0  0  0  0  0  0  0  0  0  0  0  0
    0.7895    3.8318   -0.0726 H   0  0  0  0  0  0  0  0  0  0  0  0
    0.4104    3.3864    1.6378 H   0  0  0  0  0  0  0  0  0  0  0  0
    4.3574   -1.9616    0.8908 H   0  0  0  0  0  0  0  0  0  0  0  0
    4.6667   -3.1067   -0.4191 H   0  0  0  0  0  0  0  0  0  0  0  0
    4.7482   -1.3775   -0.7747 H   0  0  0  0  0  0  0  0  0  0  0  0
    2.1722    2.1173    0.8294 H   0  0  0  0  0  0  0  0  0  0  0  0
    3.6138    0.2228    0.5249 H   0  0  0  0  0  0  0  0  0  0  0  0
   -1.6944   -0.6448   -1.8812 H   0  0  0  0  0  0  0  0  0  0  0  0
   -1.9586    0.9260   -1.2379 H   0  0  0  0  0  0  0  0  0  0  0  0
   -1.9966   -1.5080    0.6389 H   0  0  0  0  0  0  0  0  0  0  0  0
   -3.1957   -0.1483    2.0050 H   0  0  0  0  0  0  0  0  0  0  0  0
   -1.9903    0.8151    1.4557 H   0  0  0  0  0  0  0  0  0  0  0  0
  1  7  1  0
  2 14  1  0
  3 15  1  0
  4  5  2  0
  4  9  1  0
  5 10  1  0
  6  7  1  0
  6  8  1  0
  7 13  1  0
  8  9  2  0
  8 11  1  0
  9 14  1  0
 10 11  2  0
 10 15  1  0
 11 12  1  0
  1 16  1  0
  1 17  1  0
  1 18  1  0
  2 19  1  0
  2 20  1  0
  2 21  1  0
  3 22  1  0
  3 23  1  0
  3 24  1  0
  4 25  1  0
  5 26  1  0
  6 27  1  0
  6 28  1  0
  7 29  1  0
 13 30  1  0
 13 31  1  0
M  END
