
     RDKit          3D

 31 31  0  0  0  0  0  0  0  0999 V2000
   -4.1046   -0.8302   -0.2452 C   0  0  0  0  0  0  0  0  0  0  0  0
    1.4648    3.5493    0.1673 C   0  0  0  0  0  0  0  0  0  0  0  0
    3.9406   -2.1865    1.2730 C   0  0  0  0  0  0  0  0  0  0  0  0
   -1.6792   -0.4067   -0.7860 C   0  0  0  0  0  0  0  0  0  0  0  0
    0.2954    0.9847   -0.1473 C   0  0  0  0  0  0  0  0  0  0  0  0
    2.3735    0.0696    0.6537 C   0  0  0  0  0  0  0  0  0  0  0  0
   -2.7273   -0.5253    0.3430 C   0  0  0  0  0  0  0  0  0  0  0  0
   -0.2474   -0.3093   -0.2893 C   0  0  0  0  0  0  0  0  0  0  0  0
    1.5931    1.1777    0.3202 C   0  0  0  0  0  0  0  0  0  0  0  0
    1.8747   -1.2311    0.5255 C   0  0  0  0  0  0  0  0  0  0  0  0
    0.5567   -1.4177    0.0529 C   0  0  0  0  0  0  0  0  0  0  0  0
   -0.1806   -3.4095   -0.1441 I   0  0  0  0  0  0  0  0  0  0  0  0
   -2.8190    0.7125    1.1307 N   0  0  0  0  0  0  0  0  0  0  0  0
    2.2114    2.3850    0.5004 O   0  0  0  0  0  0  0  0  0  0  0  0
    2.5969   -2.3547    0.8407 O   0  0  0  0  0  0  0  0  0  0  0  0
   -4.4369   -0.0365   -0.9237 H   0  0  0  0  0  0  0  0  0  0  0  0
   -4.0842   -1.7691   -0.8092 H   0  0  0  0  0  0  0  0  0  0  0  0
   -4.8563   -0.9372    0.5449 H   0  0  0  0  0  0  0  0  0  0  0  0
    2.0992    4.4195    0.3613 H   0  0  0  0  0  0  0  0  0  0  0  0
    1.2020    3.5593   -0.8957 H   0  0  0  0  0  0  0  0  0  0  0  0
    0.5738    3.6400    0.7974 H   0  0  0  0  0  0  0  0  0  0  0  0
    4.5479   -1.7046    0.4997 H   0  0  0  0  0  0  0  0  0  0  0  0
    4.3602   -3.1811    1.4522 H   0  0  0  0  0  0  0  0  0  0  0  0
    3.9846   -1.6331    2.2167 H   0  0  0  0  0  0  0  0  0  0  0  0
   -1.9071    0.4736   -1.4046 H   0  0  0  0  0  0  0  0  0  0  0  0
   -1.7694   -1.2457   -1.4854 H   0  0  0  0  0  0  0  0  0  0  0  0
   -0.3326    1.8337   -0.4061 H   0  0  0  0  0  0  0  0  0  0  0  0
    3.3785    0.2602    1.0162 H   0  0  0  0  0  0  0  0  0  0  0  0
   -2.4576   -1.3388    1.0254 H   0  0  0  0  0  0  0  0  0  0  0  0
   -1.9333    0.8589    1.6169 H   0  0  0  0  0  0  0  0  0  0  0  0
   -3.5180    0.5933    1.8640 H   0  0  0  0  0  0  0  0  0  0  0  0
  1  7  1  0
  2 14  1  0
  3 15  1  0
  4  7  1  0
  4  8  1  0
  5  8  2  0
  5  9  1  0
  6  9  2  0
  6 10  1  0
  7 13  1  0
  8 11  1  0
  9 14  1  0
 10 11  2  0
 10 15  1  0
 11 12  1  0
  1 16  1  0
  1 17  1  0
  1 18  1  0
  2 19  1  0
  2 20  1  0
  2 21  1  0
  3 22  1  0
  3 23  1  0
  3 24  1  0
  4 25  1  0
  4 26  1  0
  5 27  1  0
  6 28  1  0
  7 29  1  0
 13 30  1  0
 13 31  1  0
M  END
