
     RDKit          3D

 29 29  0  0  0  0  0  0  0  0999 V2000
   -0.8741   -1.5592   -1.4384 C   0  0  0  0  0  0  0  0  0  0  0  0
   -2.7207    2.0056    0.3356 C   0  0  0  0  0  0  0  0  0  0  0  0
    3.3741    1.2226   -0.3164 C   0  0  0  0  0  0  0  0  0  0  0  0
    2.4182    1.6577    0.5986 C   0  0  0  0  0  0  0  0  0  0  0  0
    3.2992   -0.0674   -0.8367 C   0  0  0  0  0  0  0  0  0  0  0  0
    1.3867    0.8034    0.9930 C   0  0  0  0  0  0  0  0  0  0  0  0
    2.2667   -0.9210   -0.4432 C   0  0  0  0  0  0  0  0  0  0  0  0
    0.1854   -1.4231    0.9057 C   0  0  0  0  0  0  0  0  0  0  0  0
   -2.1222   -0.3279    0.4223 C   0  0  0  0  0  0  0  0  0  0  0  0
   -1.1156   -1.4464    0.0694 C   0  0  0  0  0  0  0  0  0  0  0  0
    1.2941   -0.4932    0.4725 C   0  0  0  0  0  0  0  0  0  0  0  0
   -1.6749    1.0224    0.0992 N   0  0  0  0  0  0  0  0  0  0  0  0
   -1.8234   -1.6858   -1.9702 H   0  0  0  0  0  0  0  0  0  0  0  0
   -0.3801   -0.6741   -1.8499 H   0  0  0  0  0  0  0  0  0  0  0  0
   -0.2528   -2.4322   -1.6649 H   0  0  0  0  0  0  0  0  0  0  0  0
   -3.5919    1.8269   -0.3029 H   0  0  0  0  0  0  0  0  0  0  0  0
   -2.3381    3.0059    0.1104 H   0  0  0  0  0  0  0  0  0  0  0  0
   -3.0376    2.0031    1.3835 H   0  0  0  0  0  0  0  0  0  0  0  0
    4.1764    1.8880   -0.6225 H   0  0  0  0  0  0  0  0  0  0  0  0
    2.4712    2.6636    1.0060 H   0  0  0  0  0  0  0  0  0  0  0  0
    4.0452   -0.4105   -1.5482 H   0  0  0  0  0  0  0  0  0  0  0  0
    0.6445    1.1607    1.7039 H   0  0  0  0  0  0  0  0  0  0  0  0
    2.2261   -1.9262   -0.8559 H   0  0  0  0  0  0  0  0  0  0  0  0
    0.5989   -2.4419    0.9133 H   0  0  0  0  0  0  0  0  0  0  0  0
   -0.0600   -1.2213    1.9571 H   0  0  0  0  0  0  0  0  0  0  0  0
   -3.0603   -0.5395   -0.1076 H   0  0  0  0  0  0  0  0  0  0  0  0
   -2.3433   -0.3864    1.4954 H   0  0  0  0  0  0  0  0  0  0  0  0
   -1.6255   -2.3770    0.3613 H   0  0  0  0  0  0  0  0  0  0  0  0
   -1.3664    1.0731   -0.8708 H   0  0  0  0  0  0  0  0  0  0  0  0
  1 10  1  0
  2 12  1  0
  3  4  2  0
  3  5  1  0
  4  6  1  0
  5  7  2  0
  6 11  2  0
  7 11  1  0
  8 10  1  0
  8 11  1  0
  9 10  1  0
  9 12  1  0
  1 13  1  0
  1 14  1  0
  1 15  1  0
  2 16  1  0
  2 17  1  0
  2 18  1  0
  3 19  1  0
  4 20  1  0
  5 21  1  0
  6 22  1  0
  7 23  1  0
  8 24  1  0
  8 25  1  0
  9 26  1  0
  9 27  1  0
 10 28  1  0
 12 29  1  0
M  END
