
     RDKit          3D

 30 30  0  0  0  0  0  0  0  0999 V2000
   -4.0766    1.2697   -0.4642 C   0  0  0  0  0  0  0  0  0  0  0  0
   -3.7832   -0.5462    1.0687 C   0  0  0  0  0  0  0  0  0  0  0  0
    5.3199    0.4786    0.2309 C   0  0  0  0  0  0  0  0  0  0  0  0
    1.0267   -0.6070   -1.6274 C   0  0  0  0  0  0  0  0  0  0  0  0
    1.2199   -0.4276    0.7688 C   0  0  0  0  0  0  0  0  0  0  0  0
    2.3831   -0.2986   -1.7527 C   0  0  0  0  0  0  0  0  0  0  0  0
    2.5790   -0.1192    0.6397 C   0  0  0  0  0  0  0  0  0  0  0  0
   -1.0383   -0.9911   -0.2222 C   0  0  0  0  0  0  0  0  0  0  0  0
   -1.8907    0.2895   -0.2212 C   0  0  0  0  0  0  0  0  0  0  0  0
    0.4335   -0.6787   -0.3625 C   0  0  0  0  0  0  0  0  0  0  0  0
    3.1670   -0.0542   -0.6232 C   0  0  0  0  0  0  0  0  0  0  0  0
   -3.3437    0.0268   -0.2052 N   0  0  0  0  0  0  0  0  0  0  0  0
    4.4772    0.2361   -0.8881 O   0  0  0  0  0  0  0  0  0  0  0  0
   -3.8041    1.6820   -1.4421 H   0  0  0  0  0  0  0  0  0  0  0  0
   -3.8815    2.0315    0.2994 H   0  0  0  0  0  0  0  0  0  0  0  0
   -5.1557    1.0814   -0.4970 H   0  0  0  0  0  0  0  0  0  0  0  0
   -4.8686   -0.6993    1.0669 H   0  0  0  0  0  0  0  0  0  0  0  0
   -3.3416   -1.5337    1.2335 H   0  0  0  0  0  0  0  0  0  0  0  0
   -3.5302    0.0958    1.9202 H   0  0  0  0  0  0  0  0  0  0  0  0
    4.9874    1.3580    0.7922 H   0  0  0  0  0  0  0  0  0  0  0  0
    6.3257    0.6861   -0.1469 H   0  0  0  0  0  0  0  0  0  0  0  0
    5.3825   -0.4033    0.8770 H   0  0  0  0  0  0  0  0  0  0  0  0
    0.4384   -0.7901   -2.5238 H   0  0  0  0  0  0  0  0  0  0  0  0
    0.7793   -0.4715    1.7625 H   0  0  0  0  0  0  0  0  0  0  0  0
    2.8335   -0.2479   -2.7410 H   0  0  0  0  0  0  0  0  0  0  0  0
    3.1470    0.0649    1.5451 H   0  0  0  0  0  0  0  0  0  0  0  0
   -1.3487   -1.6506   -1.0429 H   0  0  0  0  0  0  0  0  0  0  0  0
   -1.1854   -1.5641    0.7008 H   0  0  0  0  0  0  0  0  0  0  0  0
   -1.6049    0.9335    0.6217 H   0  0  0  0  0  0  0  0  0  0  0  0
   -1.6468    0.8496   -1.1344 H   0  0  0  0  0  0  0  0  0  0  0  0
  1 12  1  0
  2 12  1  0
  3 13  1  0
  4  6  2  0
  4 10  1  0
  5  7  1  0
  5 10  2  0
  6 11  1  0
  7 11  2  0
  8  9  1  0
  8 10  1  0
  9 12  1  0
 11 13  1  0
  1 14  1  0
  1 15  1  0
  1 16  1  0
  2 17  1  0
  2 18  1  0
  2 19  1  0
  3 20  1  0
  3 21  1  0
  3 22  1  0
  4 23  1  0
  5 24  1  0
  6 25  1  0
  7 26  1  0
  8 27  1  0
  8 28  1  0
  9 29  1  0
  9 30  1  0
M  END
