
     RDKit          3D

 29 30  0  0  0  0  0  0  0  0999 V2000
    3.9668    0.8479   -0.1674 C   0  0  0  0  0  0  0  0  0  0  0  0
   -4.1931    0.1439    0.0202 C   0  0  0  0  0  0  0  0  0  0  0  0
   -3.8787   -0.3036    1.3014 C   0  0  0  0  0  0  0  0  0  0  0  0
   -3.1761    0.4122   -0.8977 C   0  0  0  0  0  0  0  0  0  0  0  0
   -2.5448   -0.4778    1.6690 C   0  0  0  0  0  0  0  0  0  0  0  0
   -0.7520    0.5381   -1.5459 C   0  0  0  0  0  0  0  0  0  0  0  0
    0.5241   -0.2404   -1.2489 C   0  0  0  0  0  0  0  0  0  0  0  0
    2.2792   -0.7638    0.5165 C   0  0  0  0  0  0  0  0  0  0  0  0
   -1.8308    0.2272   -0.5458 C   0  0  0  0  0  0  0  0  0  0  0  0
    0.9904    0.0132    0.1881 C   0  0  0  0  0  0  0  0  0  0  0  0
   -1.5208   -0.2074    0.7518 C   0  0  0  0  0  0  0  0  0  0  0  0
   -0.1034   -0.3826    1.1749 C   0  0  0  0  0  0  0  0  0  0  0  0
    3.4090   -0.4823   -0.3827 N   0  0  0  0  0  0  0  0  0  0  0  0
    0.1452   -0.7795    2.3115 O   0  0  0  0  0  0  0  0  0  0  0  0
    4.2867    0.9885    0.8701 H   0  0  0  0  0  0  0  0  0  0  0  0
    4.8448    0.9778   -0.8081 H   0  0  0  0  0  0  0  0  0  0  0  0
    3.2548    1.6337   -0.4356 H   0  0  0  0  0  0  0  0  0  0  0  0
   -5.2329    0.2853   -0.2650 H   0  0  0  0  0  0  0  0  0  0  0  0
   -4.6705   -0.5129    2.0163 H   0  0  0  0  0  0  0  0  0  0  0  0
   -3.4405    0.7640   -1.8930 H   0  0  0  0  0  0  0  0  0  0  0  0
   -2.3061   -0.8203    2.6740 H   0  0  0  0  0  0  0  0  0  0  0  0
   -1.0916    0.2826   -2.5567 H   0  0  0  0  0  0  0  0  0  0  0  0
   -0.5509    1.6160   -1.5241 H   0  0  0  0  0  0  0  0  0  0  0  0
    0.3438   -1.3133   -1.4004 H   0  0  0  0  0  0  0  0  0  0  0  0
    1.2935    0.0623   -1.9681 H   0  0  0  0  0  0  0  0  0  0  0  0
    2.0658   -1.8387    0.4477 H   0  0  0  0  0  0  0  0  0  0  0  0
    2.5846   -0.5881    1.5560 H   0  0  0  0  0  0  0  0  0  0  0  0
    1.1620    1.0870    0.3370 H   0  0  0  0  0  0  0  0  0  0  0  0
    4.1413   -1.1691   -0.1955 H   0  0  0  0  0  0  0  0  0  0  0  0
  1 13  1  0
  2  3  2  0
  2  4  1  0
  3  5  1  0
  4  9  2  0
  5 11  2  0
  6  7  1  0
  6  9  1  0
  7 10  1  0
  8 10  1  0
  8 13  1  0
  9 11  1  0
 10 12  1  0
 11 12  1  0
 12 14  2  0
  1 15  1  0
  1 16  1  0
  1 17  1  0
  2 18  1  0
  3 19  1  0
  4 20  1  0
  5 21  1  0
  6 22  1  0
  6 23  1  0
  7 24  1  0
  7 25  1  0
  8 26  1  0
  8 27  1  0
 10 28  1  0
 13 29  1  0
M  END
