
     RDKit          3D

 31 31  0  0  0  0  0  0  0  0999 V2000
   -2.1902   -1.1213    0.9100 C   0  0  0  0  0  0  0  0  0  0  0  0
   -4.1001   -0.2760   -0.2607 C   0  0  0  0  0  0  0  0  0  0  0  0
    3.8690   -1.0241   -2.2567 C   0  0  0  0  0  0  0  0  0  0  0  0
    2.8638   -0.4763    0.3369 C   0  0  0  0  0  0  0  0  0  0  0  0
    2.3151   -0.1582    1.5820 C   0  0  0  0  0  0  0  0  0  0  0  0
   -0.8998    1.6584    0.5589 C   0  0  0  0  0  0  0  0  0  0  0  0
   -2.0826    1.0396   -0.2210 C   0  0  0  0  0  0  0  0  0  0  0  0
    0.9888    0.5860   -0.7417 C   0  0  0  0  0  0  0  0  0  0  0  0
    0.4079    0.8964    0.5005 C   0  0  0  0  0  0  0  0  0  0  0  0
    2.2046   -0.1010   -0.8317 C   0  0  0  0  0  0  0  0  0  0  0  0
    1.1025    0.5277    1.6570 C   0  0  0  0  0  0  0  0  0  0  0  0
   -2.9238    0.0872    0.5340 N   0  0  0  0  0  0  0  0  0  0  0  0
    0.5808    0.8467    2.8783 O   0  0  0  0  0  0  0  0  0  0  0  0
    2.6331   -0.3369   -2.1090 O   0  0  0  0  0  0  0  0  0  0  0  0
   -2.8599   -1.8464    1.3873 H   0  0  0  0  0  0  0  0  0  0  0  0
   -1.7220   -1.6088    0.0475 H   0  0  0  0  0  0  0  0  0  0  0  0
   -1.4224   -0.8995    1.6549 H   0  0  0  0  0  0  0  0  0  0  0  0
   -4.6899    0.6137   -0.5079 H   0  0  0  0  0  0  0  0  0  0  0  0
   -3.8282   -0.7814   -1.1946 H   0  0  0  0  0  0  0  0  0  0  0  0
   -4.7619   -0.9374    0.3098 H   0  0  0  0  0  0  0  0  0  0  0  0
    4.6939   -0.4517   -1.8198 H   0  0  0  0  0  0  0  0  0  0  0  0
    3.8147   -2.0304   -1.8284 H   0  0  0  0  0  0  0  0  0  0  0  0
    4.0674   -1.1288   -3.3278 H   0  0  0  0  0  0  0  0  0  0  0  0
    3.8079   -1.0096    0.3157 H   0  0  0  0  0  0  0  0  0  0  0  0
    2.8491   -0.4499    2.4813 H   0  0  0  0  0  0  0  0  0  0  0  0
   -1.2127    1.8448    1.5930 H   0  0  0  0  0  0  0  0  0  0  0  0
   -0.6959    2.6529    0.1382 H   0  0  0  0  0  0  0  0  0  0  0  0
   -1.7501    0.5932   -1.1661 H   0  0  0  0  0  0  0  0  0  0  0  0
   -2.7285    1.8856   -0.4937 H   0  0  0  0  0  0  0  0  0  0  0  0
    0.4969    0.8876   -1.6641 H   0  0  0  0  0  0  0  0  0  0  0  0
    1.1725    0.5179    3.5734 H   0  0  0  0  0  0  0  0  0  0  0  0
  1 12  1  0
  2 12  1  0
  3 14  1  0
  4  5  2  0
  4 10  1  0
  5 11  1  0
  6  7  1  0
  6  9  1  0
  7 12  1  0
  8  9  1  0
  8 10  2  0
  9 11  2  0
 10 14  1  0
 11 13  1  0
  1 15  1  0
  1 16  1  0
  1 17  1  0
  2 18  1  0
  2 19  1  0
  2 20  1  0
  3 21  1  0
  3 22  1  0
  3 23  1  0
  4 24  1  0
  5 25  1  0
  6 26  1  0
  6 27  1  0
  7 28  1  0
  7 29  1  0
  8 30  1  0
 13 31  1  0
M  END
