
     RDKit          3D

 31 31  0  0  0  0  0  0  0  0999 V2000
    4.9530    1.2935    0.0003 C   0  0  0  0  0  0  0  0  0  0  0  0
   -3.2229    1.0987    1.2630 C   0  0  0  0  0  0  0  0  0  0  0  0
    3.9151    0.2961    0.4829 C   0  0  0  0  0  0  0  0  0  0  0  0
    0.4136   -1.9370    1.3242 C   0  0  0  0  0  0  0  0  0  0  0  0
   -0.7937   -1.4999    0.7800 C   0  0  0  0  0  0  0  0  0  0  0  0
    1.5936   -1.2303    1.0800 C   0  0  0  0  0  0  0  0  0  0  0  0
    0.3561    0.3511   -0.2544 C   0  0  0  0  0  0  0  0  0  0  0  0
   -2.4995   -0.7172   -1.8711 C   0  0  0  0  0  0  0  0  0  0  0  0
   -0.8382   -0.3463   -0.0142 C   0  0  0  0  0  0  0  0  0  0  0  0
    1.5700   -0.0828    0.2885 C   0  0  0  0  0  0  0  0  0  0  0  0
   -2.1382    0.1382   -0.6283 C   0  0  0  0  0  0  0  0  0  0  0  0
   -3.7700   -0.3077   -2.4969 N   0  0  0  0  0  0  0  0  0  0  0  0
   -3.2268    0.0423    0.3100 O   0  0  0  0  0  0  0  0  0  0  0  0
    2.6464    0.6989   -0.0301 O   0  0  0  0  0  0  0  0  0  0  0  0
    4.9771    1.3258   -1.0940 H   0  0  0  0  0  0  0  0  0  0  0  0
    5.9485    1.0291    0.3680 H   0  0  0  0  0  0  0  0  0  0  0  0
    4.7059    2.3036    0.3436 H   0  0  0  0  0  0  0  0  0  0  0  0
   -4.0784    0.9589    1.9294 H   0  0  0  0  0  0  0  0  0  0  0  0
   -3.3294    2.0658    0.7623 H   0  0  0  0  0  0  0  0  0  0  0  0
   -2.3105    1.0845    1.8660 H   0  0  0  0  0  0  0  0  0  0  0  0
    3.9002    0.2979    1.5789 H   0  0  0  0  0  0  0  0  0  0  0  0
    4.1773   -0.7010    0.1106 H   0  0  0  0  0  0  0  0  0  0  0  0
    0.4350   -2.8320    1.9411 H   0  0  0  0  0  0  0  0  0  0  0  0
   -1.7056   -2.0600    0.9806 H   0  0  0  0  0  0  0  0  0  0  0  0
    2.5111   -1.6035    1.5218 H   0  0  0  0  0  0  0  0  0  0  0  0
    0.3523    1.2461   -0.8734 H   0  0  0  0  0  0  0  0  0  0  0  0
   -1.7012   -0.6586   -2.6194 H   0  0  0  0  0  0  0  0  0  0  0  0
   -2.6049   -1.7710   -1.5875 H   0  0  0  0  0  0  0  0  0  0  0  0
   -2.0408    1.1853   -0.9459 H   0  0  0  0  0  0  0  0  0  0  0  0
   -3.7128    0.6765   -2.7540 H   0  0  0  0  0  0  0  0  0  0  0  0
   -4.4825   -0.3451   -1.7621 H   0  0  0  0  0  0  0  0  0  0  0  0
  1  3  1  0
  2 13  1  0
  3 14  1  0
  4  5  2  0
  4  6  1  0
  5  9  1  0
  6 10  2  0
  7  9  2  0
  7 10  1  0
  8 11  1  0
  8 12  1  0
  9 11  1  0
 10 14  1  0
 11 13  1  0
  1 15  1  0
  1 16  1  0
  1 17  1  0
  2 18  1  0
  2 19  1  0
  2 20  1  0
  3 21  1  0
  3 22  1  0
  4 23  1  0
  5 24  1  0
  6 25  1  0
  7 26  1  0
  8 27  1  0
  8 28  1  0
 11 29  1  0
 12 30  1  0
 12 31  1  0
M  END
