
     RDKit          3D

 31 31  0  0  0  0  0  0  0  0999 V2000
   -1.2311   -0.5918   -1.3745 C   0  0  0  0  0  0  0  0  0  0  0  0
   -3.2296    1.6806   -0.5347 C   0  0  0  0  0  0  0  0  0  0  0  0
   -3.4543   -0.4142    0.6144 C   0  0  0  0  0  0  0  0  0  0  0  0
    1.7137   -1.5587    0.4030 C   0  0  0  0  0  0  0  0  0  0  0  0
    3.0812   -1.6227    0.1226 C   0  0  0  0  0  0  0  0  0  0  0  0
   -0.3784   -0.2631    1.0065 C   0  0  0  0  0  0  0  0  0  0  0  0
    1.8885    0.8307    0.7430 C   0  0  0  0  0  0  0  0  0  0  0  0
   -1.2202    0.3394   -0.1512 C   0  0  0  0  0  0  0  0  0  0  0  0
    1.1051   -0.3335    0.7131 C   0  0  0  0  0  0  0  0  0  0  0  0
    3.8469   -0.4596    0.1527 C   0  0  0  0  0  0  0  0  0  0  0  0
    3.2530    0.7629    0.4629 C   0  0  0  0  0  0  0  0  0  0  0  0
   -2.5671    0.7163    0.3447 N   0  0  0  0  0  0  0  0  0  0  0  0
    5.1854   -0.5063   -0.1199 O   0  0  0  0  0  0  0  0  0  0  0  0
    4.0202    1.8941    0.4900 O   0  0  0  0  0  0  0  0  0  0  0  0
   -0.2227   -0.7020   -1.7871 H   0  0  0  0  0  0  0  0  0  0  0  0
   -1.8561   -0.1940   -2.1798 H   0  0  0  0  0  0  0  0  0  0  0  0
   -1.5951   -1.5930   -1.1210 H   0  0  0  0  0  0  0  0  0  0  0  0
   -4.1552    2.0434   -0.0733 H   0  0  0  0  0  0  0  0  0  0  0  0
   -2.5986    2.5623   -0.6921 H   0  0  0  0  0  0  0  0  0  0  0  0
   -3.4831    1.2564   -1.5118 H   0  0  0  0  0  0  0  0  0  0  0  0
   -4.3763   -0.0639    1.0928 H   0  0  0  0  0  0  0  0  0  0  0  0
   -3.0018   -1.1232    1.3142 H   0  0  0  0  0  0  0  0  0  0  0  0
   -3.7361   -0.9548   -0.2956 H   0  0  0  0  0  0  0  0  0  0  0  0
    1.1244   -2.4729    0.3755 H   0  0  0  0  0  0  0  0  0  0  0  0
    3.5282   -2.5825   -0.1158 H   0  0  0  0  0  0  0  0  0  0  0  0
   -0.5050    0.3447    1.9133 H   0  0  0  0  0  0  0  0  0  0  0  0
   -0.7429   -1.2647    1.2675 H   0  0  0  0  0  0  0  0  0  0  0  0
    1.4231    1.7817    0.9869 H   0  0  0  0  0  0  0  0  0  0  0  0
   -0.7186    1.2677   -0.4571 H   0  0  0  0  0  0  0  0  0  0  0  0
    5.4381   -1.4238   -0.3014 H   0  0  0  0  0  0  0  0  0  0  0  0
    3.4643    2.6448    0.7478 H   0  0  0  0  0  0  0  0  0  0  0  0
  1  8  1  0
  2 12  1  0
  3 12  1  0
  4  5  2  0
  4  9  1  0
  5 10  1  0
  6  8  1  0
  6  9  1  0
  7  9  2  0
  7 11  1  0
  8 12  1  0
 10 11  2  0
 10 13  1  0
 11 14  1  0
  1 15  1  0
  1 16  1  0
  1 17  1  0
  2 18  1  0
  2 19  1  0
  2 20  1  0
  3 21  1  0
  3 22  1  0
  3 23  1  0
  4 24  1  0
  5 25  1  0
  6 26  1  0
  6 27  1  0
  7 28  1  0
  8 29  1  0
 13 30  1  0
 14 31  1  0
M  END
