
     RDKit          3D

 31 31  0  0  0  0  0  0  0  0999 V2000
   -2.4799   -1.3846    0.2571 C   0  0  0  0  0  0  0  0  0  0  0  0
   -3.6220    0.8123   -0.2480 C   0  0  0  0  0  0  0  0  0  0  0  0
   -0.5677    1.5580    0.1160 C   0  0  0  0  0  0  0  0  0  0  0  0
    2.6309    0.6991   -0.3335 C   0  0  0  0  0  0  0  0  0  0  0  0
    2.2264   -1.3453    0.9063 C   0  0  0  0  0  0  0  0  0  0  0  0
    3.8451    0.8609    0.3405 C   0  0  0  0  0  0  0  0  0  0  0  0
    3.4401   -1.1806    1.5778 C   0  0  0  0  0  0  0  0  0  0  0  0
   -2.7985   -0.3453   -0.8167 C   0  0  0  0  0  0  0  0  0  0  0  0
   -0.4070    0.5783   -1.0419 C   0  0  0  0  0  0  0  0  0  0  0  0
    1.8121   -0.3965   -0.0375 C   0  0  0  0  0  0  0  0  0  0  0  0
    4.2422   -0.0762    1.2949 C   0  0  0  0  0  0  0  0  0  0  0  0
    0.5230   -0.6207   -0.7411 C   0  0  0  0  0  0  0  0  0  0  0  0
    5.7371    0.1283    2.1206 Cl  0  0  0  0  0  0  0  0  0  0  0  0
   -1.6718    0.0976   -1.6509 N   0  0  0  0  0  0  0  0  0  0  0  0
    0.2752   -1.7691   -1.1143 O   0  0  0  0  0  0  0  0  0  0  0  0
   -2.0469   -2.2867   -0.1862 H   0  0  0  0  0  0  0  0  0  0  0  0
   -3.3970   -1.6930    0.7719 H   0  0  0  0  0  0  0  0  0  0  0  0
   -1.7918   -1.0064    1.0173 H   0  0  0  0  0  0  0  0  0  0  0  0
   -4.6105    0.4527    0.0611 H   0  0  0  0  0  0  0  0  0  0  0  0
   -3.7836    1.5915   -1.0009 H   0  0  0  0  0  0  0  0  0  0  0  0
   -3.1616    1.2678    0.6317 H   0  0  0  0  0  0  0  0  0  0  0  0
   -1.2700    2.3577   -0.1411 H   0  0  0  0  0  0  0  0  0  0  0  0
   -0.9011    1.0656    1.0334 H   0  0  0  0  0  0  0  0  0  0  0  0
    0.3770    2.0552    0.3552 H   0  0  0  0  0  0  0  0  0  0  0  0
    2.3509    1.4245   -1.0927 H   0  0  0  0  0  0  0  0  0  0  0  0
    1.6067   -2.2153    1.1169 H   0  0  0  0  0  0  0  0  0  0  0  0
    4.4805    1.7131    0.1117 H   0  0  0  0  0  0  0  0  0  0  0  0
    3.7547   -1.9182    2.3119 H   0  0  0  0  0  0  0  0  0  0  0  0
   -3.4762   -0.8461   -1.5222 H   0  0  0  0  0  0  0  0  0  0  0  0
    0.0919    1.1216   -1.8552 H   0  0  0  0  0  0  0  0  0  0  0  0
   -1.4083   -0.7003   -2.2422 H   0  0  0  0  0  0  0  0  0  0  0  0
  1  8  1  0
  2  8  1  0
  3  9  1  0
  4  6  2  0
  4 10  1  0
  5  7  1  0
  5 10  2  0
  6 11  1  0
  7 11  2  0
  8 14  1  0
  9 12  1  0
  9 14  1  0
 10 12  1  0
 11 13  1  0
 12 15  2  0
  1 16  1  0
  1 17  1  0
  1 18  1  0
  2 19  1  0
  2 20  1  0
  2 21  1  0
  3 22  1  0
  3 23  1  0
  3 24  1  0
  4 25  1  0
  5 26  1  0
  6 27  1  0
  7 28  1  0
  8 29  1  0
  9 30  1  0
 14 31  1  0
M  END
