
     RDKit          3D

 32 32  0  0  0  0  0  0  0  0999 V2000
    4.3788   -0.1111    0.4287 C   0  0  0  0  0  0  0  0  0  0  0  0
   -2.2696   -2.7884    0.4276 C   0  0  0  0  0  0  0  0  0  0  0  0
   -4.2030    1.4065   -0.1943 C   0  0  0  0  0  0  0  0  0  0  0  0
    1.9308    0.2077    0.9395 C   0  0  0  0  0  0  0  0  0  0  0  0
    0.1477    1.6042   -0.1887 C   0  0  0  0  0  0  0  0  0  0  0  0
   -0.3992   -0.6653    0.4709 C   0  0  0  0  0  0  0  0  0  0  0  0
    2.9657   -0.1402   -0.1517 C   0  0  0  0  0  0  0  0  0  0  0  0
    0.5273    0.3914    0.4023 C   0  0  0  0  0  0  0  0  0  0  0  0
   -1.1413    1.7555   -0.6944 C   0  0  0  0  0  0  0  0  0  0  0  0
   -1.6933   -0.5222   -0.0410 C   0  0  0  0  0  0  0  0  0  0  0  0
   -2.0623    0.7060   -0.6108 C   0  0  0  0  0  0  0  0  0  0  0  0
    2.7234   -1.4696   -0.7254 N   0  0  0  0  0  0  0  0  0  0  0  0
   -1.5182    2.9364   -1.2740 O   0  0  0  0  0  0  0  0  0  0  0  0
   -2.6566   -1.4975   -0.0221 O   0  0  0  0  0  0  0  0  0  0  0  0
   -3.3136    0.8541   -1.1622 O   0  0  0  0  0  0  0  0  0  0  0  0
    5.1262   -0.3333   -0.3412 H   0  0  0  0  0  0  0  0  0  0  0  0
    4.6092    0.8798    0.8349 H   0  0  0  0  0  0  0  0  0  0  0  0
    4.4970   -0.8420    1.2367 H   0  0  0  0  0  0  0  0  0  0  0  0
   -1.4550   -3.1942   -0.1816 H   0  0  0  0  0  0  0  0  0  0  0  0
   -2.0004   -2.7704    1.4887 H   0  0  0  0  0  0  0  0  0  0  0  0
   -3.1312   -3.4536    0.3154 H   0  0  0  0  0  0  0  0  0  0  0  0
   -4.2918    0.7573    0.6840 H   0  0  0  0  0  0  0  0  0  0  0  0
   -3.8913    2.4122    0.1079 H   0  0  0  0  0  0  0  0  0  0  0  0
   -5.1921    1.4854   -0.6555 H   0  0  0  0  0  0  0  0  0  0  0  0
    2.2256    1.1368    1.4458 H   0  0  0  0  0  0  0  0  0  0  0  0
    1.9292   -0.5622    1.7230 H   0  0  0  0  0  0  0  0  0  0  0  0
    0.8621    2.4202   -0.2472 H   0  0  0  0  0  0  0  0  0  0  0  0
   -0.0770   -1.5973    0.9269 H   0  0  0  0  0  0  0  0  0  0  0  0
    2.9092    0.5986   -0.9605 H   0  0  0  0  0  0  0  0  0  0  0  0
    3.4011   -1.6505   -1.4655 H   0  0  0  0  0  0  0  0  0  0  0  0
    1.8089   -1.4737   -1.1804 H   0  0  0  0  0  0  0  0  0  0  0  0
   -0.7460    3.5195   -1.3360 H   0  0  0  0  0  0  0  0  0  0  0  0
  1  7  1  0
  2 14  1  0
  3 15  1  0
  4  7  1  0
  4  8  1  0
  5  8  2  0
  5  9  1  0
  6  8  1  0
  6 10  2  0
  7 12  1  0
  9 11  2  0
  9 13  1  0
 10 11  1  0
 10 14  1  0
 11 15  1  0
  1 16  1  0
  1 17  1  0
  1 18  1  0
  2 19  1  0
  2 20  1  0
  2 21  1  0
  3 22  1  0
  3 23  1  0
  3 24  1  0
  4 25  1  0
  4 26  1  0
  5 27  1  0
  6 28  1  0
  7 29  1  0
 12 30  1  0
 12 31  1  0
 13 32  1  0
M  END
