
     RDKit          3D

 32 32  0  0  0  0  0  0  0  0999 V2000
   -3.5007    1.5879   -0.2136 C   0  0  0  0  0  0  0  0  0  0  0  0
   -2.7386   -2.4743    0.4290 C   0  0  0  0  0  0  0  0  0  0  0  0
    1.1930    3.7096   -0.5101 C   0  0  0  0  0  0  0  0  0  0  0  0
    2.0195   -0.3233    0.0785 C   0  0  0  0  0  0  0  0  0  0  0  0
    2.2697   -1.8324    0.2148 C   0  0  0  0  0  0  0  0  0  0  0  0
   -1.0135    1.9622   -0.2757 C   0  0  0  0  0  0  0  0  0  0  0  0
   -0.5135   -0.7433    0.1486 C   0  0  0  0  0  0  0  0  0  0  0  0
   -2.0897    1.0719   -0.1350 C   0  0  0  0  0  0  0  0  0  0  0  0
    0.5722    0.1413    0.0035 C   0  0  0  0  0  0  0  0  0  0  0  0
   -1.8362   -0.2906    0.0801 C   0  0  0  0  0  0  0  0  0  0  0  0
    0.3080    1.5103   -0.2064 C   0  0  0  0  0  0  0  0  0  0  0  0
    3.7109   -2.1167    0.2455 N   0  0  0  0  0  0  0  0  0  0  0  0
    3.8092   -3.5674    0.2848 O   0  0  0  0  0  0  0  0  0  0  0  0
   -2.9457   -1.0854    0.2090 O   0  0  0  0  0  0  0  0  0  0  0  0
    1.4112    2.3164   -0.3319 O   0  0  0  0  0  0  0  0  0  0  0  0
   -4.0279    1.3941    0.7262 H   0  0  0  0  0  0  0  0  0  0  0  0
   -3.5259    2.6683   -0.3907 H   0  0  0  0  0  0  0  0  0  0  0  0
   -4.0356    1.1053   -1.0380 H   0  0  0  0  0  0  0  0  0  0  0  0
   -2.2095   -2.6505    1.3712 H   0  0  0  0  0  0  0  0  0  0  0  0
   -2.2129   -2.9338   -0.4145 H   0  0  0  0  0  0  0  0  0  0  0  0
   -3.7210   -2.9501    0.5063 H   0  0  0  0  0  0  0  0  0  0  0  0
    0.6636    4.1400    0.3463 H   0  0  0  0  0  0  0  0  0  0  0  0
    2.1716    4.1952   -0.5732 H   0  0  0  0  0  0  0  0  0  0  0  0
    0.6628    3.9091   -1.4470 H   0  0  0  0  0  0  0  0  0  0  0  0
    2.5273    0.0224   -0.8323 H   0  0  0  0  0  0  0  0  0  0  0  0
    2.4883    0.1844    0.9323 H   0  0  0  0  0  0  0  0  0  0  0  0
    1.8074   -2.3655   -0.6252 H   0  0  0  0  0  0  0  0  0  0  0  0
    1.8177   -2.2009    1.1433 H   0  0  0  0  0  0  0  0  0  0  0  0
   -1.2366    3.0113   -0.4402 H   0  0  0  0  0  0  0  0  0  0  0  0
   -0.3169   -1.7950    0.3178 H   0  0  0  0  0  0  0  0  0  0  0  0
    4.1126   -1.8941   -0.6701 H   0  0  0  0  0  0  0  0  0  0  0  0
    4.3791   -3.7066    1.0667 H   0  0  0  0  0  0  0  0  0  0  0  0
  1  8  1  0
  2 14  1  0
  3 15  1  0
  4  5  1  0
  4  9  1  0
  5 12  1  0
  6  8  2  0
  6 11  1  0
  7  9  1  0
  7 10  2  0
  8 10  1  0
  9 11  2  0
 10 14  1  0
 11 15  1  0
 12 13  1  0
  1 16  1  0
  1 17  1  0
  1 18  1  0
  2 19  1  0
  2 20  1  0
  2 21  1  0
  3 22  1  0
  3 23  1  0
  3 24  1  0
  4 25  1  0
  4 26  1  0
  5 27  1  0
  5 28  1  0
  6 29  1  0
  7 30  1  0
 12 31  1  0
 13 32  1  0
M  END
