
     RDKit          3D

 33 33  0  0  0  0  0  0  0  0999 V2000
   -4.2087   -0.9225   -0.0982 C   0  0  0  0  0  0  0  0  0  0  0  0
    0.5627    1.9056    2.5221 C   0  0  0  0  0  0  0  0  0  0  0  0
    4.1705    1.1677   -0.9254 C   0  0  0  0  0  0  0  0  0  0  0  0
   -1.7903   -1.0468    0.6285 C   0  0  0  0  0  0  0  0  0  0  0  0
    0.1916   -1.5020   -0.8510 C   0  0  0  0  0  0  0  0  0  0  0  0
    1.6824    0.5547    0.2961 C   0  0  0  0  0  0  0  0  0  0  0  0
   -2.8482   -0.2295   -0.1459 C   0  0  0  0  0  0  0  0  0  0  0  0
   -0.3690   -0.7414    0.1898 C   0  0  0  0  0  0  0  0  0  0  0  0
    1.4978   -1.2761   -1.2895 C   0  0  0  0  0  0  0  0  0  0  0  0
    0.3904    0.2900    0.7694 C   0  0  0  0  0  0  0  0  0  0  0  0
    2.2306   -0.2080   -0.7416 C   0  0  0  0  0  0  0  0  0  0  0  0
   -3.0110    1.1181    0.4116 N   0  0  0  0  0  0  0  0  0  0  0  0
    1.9835   -1.9770   -2.4113 N   0  0  0  0  0  0  0  0  0  0  0  0
   -0.2289    1.0002    1.7644 O   0  0  0  0  0  0  0  0  0  0  0  0
    3.4866   -0.0285   -1.2743 O   0  0  0  0  0  0  0  0  0  0  0  0
   -4.9627   -0.3509   -0.6512 H   0  0  0  0  0  0  0  0  0  0  0  0
   -4.1517   -1.9172   -0.5536 H   0  0  0  0  0  0  0  0  0  0  0  0
   -4.5624   -1.0434    0.9320 H   0  0  0  0  0  0  0  0  0  0  0  0
    0.8761    2.7571    1.9097 H   0  0  0  0  0  0  0  0  0  0  0  0
   -0.0589    2.2926    3.3352 H   0  0  0  0  0  0  0  0  0  0  0  0
    1.4245    1.4018    2.9724 H   0  0  0  0  0  0  0  0  0  0  0  0
    3.5725    2.0540   -1.1627 H   0  0  0  0  0  0  0  0  0  0  0  0
    4.4627    1.1571    0.1296 H   0  0  0  0  0  0  0  0  0  0  0  0
    5.0862    1.2151   -1.5225 H   0  0  0  0  0  0  0  0  0  0  0  0
   -1.9669   -2.1199    0.4718 H   0  0  0  0  0  0  0  0  0  0  0  0
   -1.8955   -0.9043    1.7120 H   0  0  0  0  0  0  0  0  0  0  0  0
   -0.4016   -2.2781   -1.3290 H   0  0  0  0  0  0  0  0  0  0  0  0
    2.2597    1.3593    0.7304 H   0  0  0  0  0  0  0  0  0  0  0  0
   -2.5445   -0.1370   -1.1960 H   0  0  0  0  0  0  0  0  0  0  0  0
   -3.4554    1.7206   -0.2783 H   0  0  0  0  0  0  0  0  0  0  0  0
   -2.0851    1.5135    0.5917 H   0  0  0  0  0  0  0  0  0  0  0  0
    1.6664   -2.9384   -2.4601 H   0  0  0  0  0  0  0  0  0  0  0  0
    2.9966   -1.8861   -2.4760 H   0  0  0  0  0  0  0  0  0  0  0  0
  1  7  1  0
  2 14  1  0
  3 15  1  0
  4  7  1  0
  4  8  1  0
  5  8  2  0
  5  9  1  0
  6 10  2  0
  6 11  1  0
  7 12  1  0
  8 10  1  0
  9 11  2  0
  9 13  1  0
 10 14  1  0
 11 15  1  0
  1 16  1  0
  1 17  1  0
  1 18  1  0
  2 19  1  0
  2 20  1  0
  2 21  1  0
  3 22  1  0
  3 23  1  0
  3 24  1  0
  4 25  1  0
  4 26  1  0
  5 27  1  0
  6 28  1  0
  7 29  1  0
 12 30  1  0
 12 31  1  0
 13 32  1  0
 13 33  1  0
M  END
