
     RDKit          3D

 26 28  0  0  0  0  0  0  0  0999 V2000
    1.6977   -0.1833   -0.4761 C   0  0  0  0  0  0  0  0  0  0  0  0
    0.1381    2.6358   -0.0417 C   0  0  0  0  0  0  0  0  0  0  0  0
   -2.5626   -2.2746   -0.4913 C   0  0  0  0  0  0  0  0  0  0  0  0
    2.3011   -0.5300    0.8888 C   0  0  0  0  0  0  0  0  0  0  0  0
   -0.9526    3.4556    0.1233 C   0  0  0  0  0  0  0  0  0  0  0  0
   -1.4649   -3.0872   -0.6476 C   0  0  0  0  0  0  0  0  0  0  0  0
    0.2027    0.0329   -0.3787 C   0  0  0  0  0  0  0  0  0  0  0  0
   -0.3653    1.3116   -0.1832 C   0  0  0  0  0  0  0  0  0  0  0  0
   -2.0703   -0.9440   -0.3615 C   0  0  0  0  0  0  0  0  0  0  0  0
   -2.6135    0.3348   -0.1760 C   0  0  0  0  0  0  0  0  0  0  0  0
   -0.6855   -1.0505   -0.4545 C   0  0  0  0  0  0  0  0  0  0  0  0
   -1.7511    1.4252   -0.0895 C   0  0  0  0  0  0  0  0  0  0  0  0
   -4.6799    0.6032   -0.0233 I   0  0  0  0  0  0  0  0  0  0  0  0
    3.7544   -0.6669    0.8055 N   0  0  0  0  0  0  0  0  0  0  0  0
   -0.3244   -2.3540   -0.6245 O   0  0  0  0  0  0  0  0  0  0  0  0
   -2.0993    2.7323    0.0963 O   0  0  0  0  0  0  0  0  0  0  0  0
    1.9060   -0.9844   -1.1967 H   0  0  0  0  0  0  0  0  0  0  0  0
    2.1699    0.7208   -0.8803 H   0  0  0  0  0  0  0  0  0  0  0  0
    1.1708    2.9534   -0.0609 H   0  0  0  0  0  0  0  0  0  0  0  0
   -3.5923   -2.6027   -0.4718 H   0  0  0  0  0  0  0  0  0  0  0  0
    1.8780   -1.4702    1.2603 H   0  0  0  0  0  0  0  0  0  0  0  0
    2.0581    0.2463    1.6236 H   0  0  0  0  0  0  0  0  0  0  0  0
   -1.0759    4.5206    0.2645 H   0  0  0  0  0  0  0  0  0  0  0  0
   -1.3331   -4.1522   -0.7799 H   0  0  0  0  0  0  0  0  0  0  0  0
    4.1716    0.2262    0.5476 H   0  0  0  0  0  0  0  0  0  0  0  0
    4.1223   -0.8986    1.7276 H   0  0  0  0  0  0  0  0  0  0  0  0
  1  4  1  0
  1  7  1  0
  2  5  2  0
  2  8  1  0
  3  6  2  0
  3  9  1  0
  4 14  1  0
  5 16  1  0
  6 15  1  0
  7  8  2  0
  7 11  1  0
  8 12  1  0
  9 10  1  0
  9 11  2  0
 10 12  2  0
 10 13  1  0
 11 15  1  0
 12 16  1  0
  1 17  1  0
  1 18  1  0
  2 19  1  0
  3 20  1  0
  4 21  1  0
  4 22  1  0
  5 23  1  0
  6 24  1  0
 14 25  1  0
 14 26  1  0
M  END
