
     RDKit          3D

 32 33  0  0  0  0  0  0  0  0999 V2000
   -3.0142   -2.4668   -0.1700 C   0  0  0  0  0  0  0  0  0  0  0  0
    3.8144   -1.7942   -0.7232 C   0  0  0  0  0  0  0  0  0  0  0  0
   -1.3197    3.3278    0.5273 C   0  0  0  0  0  0  0  0  0  0  0  0
   -1.3091   -0.7378   -0.8308 C   0  0  0  0  0  0  0  0  0  0  0  0
    1.2186   -0.6087   -0.5976 C   0  0  0  0  0  0  0  0  0  0  0  0
    2.2417    2.6995    0.5418 C   0  0  0  0  0  0  0  0  0  0  0  0
   -1.7834   -1.6854    0.2940 C   0  0  0  0  0  0  0  0  0  0  0  0
   -0.0581    0.0479   -0.4918 C   0  0  0  0  0  0  0  0  0  0  0  0
    2.2413    1.3234    0.1018 C   0  0  0  0  0  0  0  0  0  0  0  0
    1.0539    1.9468    0.2079 C   0  0  0  0  0  0  0  0  0  0  0  0
    2.4142    0.0532   -0.2902 C   0  0  0  0  0  0  0  0  0  0  0  0
   -0.1357    1.3887   -0.0635 C   0  0  0  0  0  0  0  0  0  0  0  0
   -2.0981   -0.9713    1.5352 N   0  0  0  0  0  0  0  0  0  0  0  0
    3.6771   -0.4310   -0.3443 O   0  0  0  0  0  0  0  0  0  0  0  0
   -1.3493    1.9902    0.0370 O   0  0  0  0  0  0  0  0  0  0  0  0
   -3.3376   -3.1827    0.5939 H   0  0  0  0  0  0  0  0  0  0  0  0
   -3.8556   -1.7990   -0.3863 H   0  0  0  0  0  0  0  0  0  0  0  0
   -2.7913   -3.0347   -1.0797 H   0  0  0  0  0  0  0  0  0  0  0  0
    3.3060   -2.4553   -0.0134 H   0  0  0  0  0  0  0  0  0  0  0  0
    3.4522   -1.9583   -1.7436 H   0  0  0  0  0  0  0  0  0  0  0  0
    4.8803   -2.0414   -0.7043 H   0  0  0  0  0  0  0  0  0  0  0  0
   -2.3518    3.6885    0.5736 H   0  0  0  0  0  0  0  0  0  0  0  0
   -0.9057    3.3693    1.5407 H   0  0  0  0  0  0  0  0  0  0  0  0
   -0.7659    3.9858   -0.1511 H   0  0  0  0  0  0  0  0  0  0  0  0
   -2.1192   -0.0542   -1.1161 H   0  0  0  0  0  0  0  0  0  0  0  0
   -1.1044   -1.3244   -1.7370 H   0  0  0  0  0  0  0  0  0  0  0  0
    1.2291   -1.6448   -0.9238 H   0  0  0  0  0  0  0  0  0  0  0  0
    2.5955    3.4717   -0.1313 H   0  0  0  0  0  0  0  0  0  0  0  0
    2.4604    2.9241    1.5794 H   0  0  0  0  0  0  0  0  0  0  0  0
   -0.9873   -2.4048    0.5198 H   0  0  0  0  0  0  0  0  0  0  0  0
   -2.7161   -1.5231    2.1254 H   0  0  0  0  0  0  0  0  0  0  0  0
   -2.5822   -0.0993    1.3200 H   0  0  0  0  0  0  0  0  0  0  0  0
  1  7  1  0
  2 14  1  0
  3 15  1  0
  4  7  1  0
  4  8  1  0
  5  8  2  0
  5 11  1  0
  6  9  1  0
  6 10  1  0
  7 13  1  0
  8 12  1  0
  9 10  1  0
  9 11  2  0
 10 12  2  0
 11 14  1  0
 12 15  1  0
  1 16  1  0
  1 17  1  0
  1 18  1  0
  2 19  1  0
  2 20  1  0
  2 21  1  0
  3 22  1  0
  3 23  1  0
  3 24  1  0
  4 25  1  0
  4 26  1  0
  5 27  1  0
  6 28  1  0
  6 29  1  0
  7 30  1  0
 13 31  1  0
 13 32  1  0
M  END
