
     RDKit          3D

 33 33  0  0  0  0  0  0  0  0999 V2000
   -4.2588   -0.1912    0.7754 C   0  0  0  0  0  0  0  0  0  0  0  0
   -3.3189    1.1737   -0.9753 C   0  0  0  0  0  0  0  0  0  0  0  0
    4.2189    2.7869    0.0222 C   0  0  0  0  0  0  0  0  0  0  0  0
    1.0179   -3.4819   -0.4835 C   0  0  0  0  0  0  0  0  0  0  0  0
    3.0041    0.2419   -0.3031 C   0  0  0  0  0  0  0  0  0  0  0  0
    2.3522   -0.9950   -0.4105 C   0  0  0  0  0  0  0  0  0  0  0  0
    0.9650    1.2470    0.4714 C   0  0  0  0  0  0  0  0  0  0  0  0
   -2.0932   -0.7970   -0.1996 C   0  0  0  0  0  0  0  0  0  0  0  0
    2.3148    1.3665    0.1438 C   0  0  0  0  0  0  0  0  0  0  0  0
    0.3021    0.0159    0.3476 C   0  0  0  0  0  0  0  0  0  0  0  0
   -1.1424   -0.0060    0.7050 C   0  0  0  0  0  0  0  0  0  0  0  0
    0.9989   -1.1249   -0.0798 C   0  0  0  0  0  0  0  0  0  0  0  0
   -3.4172   -0.1718   -0.4179 N   0  0  0  0  0  0  0  0  0  0  0  0
   -1.4972    0.6310    1.6967 O   0  0  0  0  0  0  0  0  0  0  0  0
    2.8334    2.6212    0.2963 O   0  0  0  0  0  0  0  0  0  0  0  0
    0.3065   -2.3039   -0.1220 O   0  0  0  0  0  0  0  0  0  0  0  0
   -5.2833    0.0973    0.5132 H   0  0  0  0  0  0  0  0  0  0  0  0
   -3.9171    0.4887    1.5610 H   0  0  0  0  0  0  0  0  0  0  0  0
   -4.3203   -1.2022    1.1928 H   0  0  0  0  0  0  0  0  0  0  0  0
   -2.7158    1.1698   -1.8901 H   0  0  0  0  0  0  0  0  0  0  0  0
   -2.8809    1.8942   -0.2763 H   0  0  0  0  0  0  0  0  0  0  0  0
   -4.3120    1.5405   -1.2585 H   0  0  0  0  0  0  0  0  0  0  0  0
    4.4750    3.8333    0.2143 H   0  0  0  0  0  0  0  0  0  0  0  0
    4.8302    2.1667    0.6861 H   0  0  0  0  0  0  0  0  0  0  0  0
    4.4398    2.5775   -1.0296 H   0  0  0  0  0  0  0  0  0  0  0  0
    1.8289   -3.6864    0.2231 H   0  0  0  0  0  0  0  0  0  0  0  0
    1.3919   -3.4156   -1.5103 H   0  0  0  0  0  0  0  0  0  0  0  0
    0.3174   -4.3213   -0.4382 H   0  0  0  0  0  0  0  0  0  0  0  0
    4.0548    0.2876   -0.5721 H   0  0  0  0  0  0  0  0  0  0  0  0
    2.9408   -1.8407   -0.7529 H   0  0  0  0  0  0  0  0  0  0  0  0
    0.4223    2.1223    0.8250 H   0  0  0  0  0  0  0  0  0  0  0  0
   -1.6326   -0.9267   -1.1860 H   0  0  0  0  0  0  0  0  0  0  0  0
   -2.2249   -1.7973    0.2286 H   0  0  0  0  0  0  0  0  0  0  0  0
  1 13  1  0
  2 13  1  0
  3 15  1  0
  4 16  1  0
  5  6  2  0
  5  9  1  0
  6 12  1  0
  7  9  2  0
  7 10  1  0
  8 11  1  0
  8 13  1  0
  9 15  1  0
 10 11  1  0
 10 12  2  0
 11 14  2  0
 12 16  1  0
  1 17  1  0
  1 18  1  0
  1 19  1  0
  2 20  1  0
  2 21  1  0
  2 22  1  0
  3 23  1  0
  3 24  1  0
  3 25  1  0
  4 26  1  0
  4 27  1  0
  4 28  1  0
  5 29  1  0
  6 30  1  0
  7 31  1  0
  8 32  1  0
  8 33  1  0
M  END
