
     RDKit          3D

 33 34  0  0  0  0  0  0  0  0999 V2000
   -4.4618    1.0733   -0.4513 C   0  0  0  0  0  0  0  0  0  0  0  0
    2.9780    2.8296   -0.1403 C   0  0  0  0  0  0  0  0  0  0  0  0
   -3.4288    0.6926    0.6019 C   0  0  0  0  0  0  0  0  0  0  0  0
   -1.1067   -0.1430    1.1470 C   0  0  0  0  0  0  0  0  0  0  0  0
    1.1673    0.7073    0.4001 C   0  0  0  0  0  0  0  0  0  0  0  0
    0.7502   -1.6945    0.4125 C   0  0  0  0  0  0  0  0  0  0  0  0
    3.9261   -2.6311   -0.7606 C   0  0  0  0  0  0  0  0  0  0  0  0
    0.3014   -0.3872    0.6475 C   0  0  0  0  0  0  0  0  0  0  0  0
   -2.1359    0.0914    0.0158 C   0  0  0  0  0  0  0  0  0  0  0  0
    2.4728    0.5090   -0.0679 C   0  0  0  0  0  0  0  0  0  0  0  0
    2.0380   -1.8653   -0.0469 C   0  0  0  0  0  0  0  0  0  0  0  0
    2.8762   -0.7989   -0.2797 C   0  0  0  0  0  0  0  0  0  0  0  0
   -2.4179   -1.1623   -0.6946 N   0  0  0  0  0  0  0  0  0  0  0  0
    3.3895    1.4842   -0.3357 O   0  0  0  0  0  0  0  0  0  0  0  0
    2.6240   -3.0627   -0.3196 O   0  0  0  0  0  0  0  0  0  0  0  0
    4.0994   -1.2029   -0.7300 O   0  0  0  0  0  0  0  0  0  0  0  0
   -5.3063    1.5855    0.0210 H   0  0  0  0  0  0  0  0  0  0  0  0
   -4.0311    1.7486   -1.1973 H   0  0  0  0  0  0  0  0  0  0  0  0
   -4.8569    0.1926   -0.9662 H   0  0  0  0  0  0  0  0  0  0  0  0
    3.8181    3.4786   -0.4055 H   0  0  0  0  0  0  0  0  0  0  0  0
    2.7306    3.0183    0.9096 H   0  0  0  0  0  0  0  0  0  0  0  0
    2.1396    3.0860   -0.7964 H   0  0  0  0  0  0  0  0  0  0  0  0
   -3.1765    1.5976    1.1688 H   0  0  0  0  0  0  0  0  0  0  0  0
   -3.8839   -0.0065    1.3148 H   0  0  0  0  0  0  0  0  0  0  0  0
   -1.4210   -0.9794    1.7863 H   0  0  0  0  0  0  0  0  0  0  0  0
   -1.0804    0.7312    1.8116 H   0  0  0  0  0  0  0  0  0  0  0  0
    0.7896    1.7085    0.5839 H   0  0  0  0  0  0  0  0  0  0  0  0
    0.1055   -2.5519    0.5734 H   0  0  0  0  0  0  0  0  0  0  0  0
    4.6838   -3.0902   -0.1154 H   0  0  0  0  0  0  0  0  0  0  0  0
    4.0823   -2.9820   -1.7873 H   0  0  0  0  0  0  0  0  0  0  0  0
   -1.7159    0.8026   -0.7064 H   0  0  0  0  0  0  0  0  0  0  0  0
   -2.9371   -1.7982   -0.0913 H   0  0  0  0  0  0  0  0  0  0  0  0
   -3.0120   -0.9808   -1.5017 H   0  0  0  0  0  0  0  0  0  0  0  0
  1  3  1  0
  2 14  1  0
  3  9  1  0
  4  8  1  0
  4  9  1  0
  5  8  2  0
  5 10  1  0
  6  8  1  0
  6 11  2  0
  7 15  1  0
  7 16  1  0
  9 13  1  0
 10 12  2  0
 10 14  1  0
 11 12  1  0
 11 15  1  0
 12 16  1  0
  1 17  1  0
  1 18  1  0
  1 19  1  0
  2 20  1  0
  2 21  1  0
  2 22  1  0
  3 23  1  0
  3 24  1  0
  4 25  1  0
  4 26  1  0
  5 27  1  0
  6 28  1  0
  7 29  1  0
  7 30  1  0
  9 31  1  0
 13 32  1  0
 13 33  1  0
M  END
