
     RDKit          3D

 34 34  0  0  0  0  0  0  0  0999 V2000
   -4.4993   -0.6784   -0.7782 C   0  0  0  0  0  0  0  0  0  0  0  0
    4.5571   -1.6376   -0.8804 C   0  0  0  0  0  0  0  0  0  0  0  0
    3.3080    0.2043    2.6870 C   0  0  0  0  0  0  0  0  0  0  0  0
    0.4777   -0.6540   -1.2935 C   0  0  0  0  0  0  0  0  0  0  0  0
    1.8012   -1.0750   -1.1115 C   0  0  0  0  0  0  0  0  0  0  0  0
    0.7126    0.8825    0.5444 C   0  0  0  0  0  0  0  0  0  0  0  0
   -2.4568    0.1889    0.3850 C   0  0  0  0  0  0  0  0  0  0  0  0
   -4.4939    1.5659    0.2009 C   0  0  0  0  0  0  0  0  0  0  0  0
   -0.0800    0.3357   -0.4732 C   0  0  0  0  0  0  0  0  0  0  0  0
   -1.5111    0.7848   -0.6801 C   0  0  0  0  0  0  0  0  0  0  0  0
    2.5965   -0.5169   -0.1047 C   0  0  0  0  0  0  0  0  0  0  0  0
    2.0283    0.4487    0.7436 C   0  0  0  0  0  0  0  0  0  0  0  0
   -3.8732    0.3401    0.0425 N   0  0  0  0  0  0  0  0  0  0  0  0
   -5.6030    1.8643   -0.2234 O   0  0  0  0  0  0  0  0  0  0  0  0
   -1.5764    2.2138   -0.6363 O   0  0  0  0  0  0  0  0  0  0  0  0
    3.9097   -0.8410    0.1040 O   0  0  0  0  0  0  0  0  0  0  0  0
    2.6996    1.0938    1.7524 O   0  0  0  0  0  0  0  0  0  0  0  0
   -4.0223   -0.6887   -1.7619 H   0  0  0  0  0  0  0  0  0  0  0  0
   -4.3688   -1.6506   -0.2965 H   0  0  0  0  0  0  0  0  0  0  0  0
   -5.5677   -0.4870   -0.9044 H   0  0  0  0  0  0  0  0  0  0  0  0
    5.6140   -1.7146   -0.6064 H   0  0  0  0  0  0  0  0  0  0  0  0
    4.1439   -2.6518   -0.8981 H   0  0  0  0  0  0  0  0  0  0  0  0
    4.5031   -1.1681   -1.8689 H   0  0  0  0  0  0  0  0  0  0  0  0
    3.3868    0.7359    3.6423 H   0  0  0  0  0  0  0  0  0  0  0  0
    2.7085   -0.6985    2.8542 H   0  0  0  0  0  0  0  0  0  0  0  0
    4.3254   -0.0522    2.3756 H   0  0  0  0  0  0  0  0  0  0  0  0
   -0.1093   -1.1049   -2.0924 H   0  0  0  0  0  0  0  0  0  0  0  0
    2.1831   -1.8402   -1.7811 H   0  0  0  0  0  0  0  0  0  0  0  0
    0.3101    1.6570    1.1966 H   0  0  0  0  0  0  0  0  0  0  0  0
   -2.2979    0.7006    1.3432 H   0  0  0  0  0  0  0  0  0  0  0  0
   -2.2610   -0.8787    0.5417 H   0  0  0  0  0  0  0  0  0  0  0  0
   -3.8915    2.2770    0.7910 H   0  0  0  0  0  0  0  0  0  0  0  0
   -1.8444    0.4919   -1.6830 H   0  0  0  0  0  0  0  0  0  0  0  0
   -0.8091    2.5529   -1.1303 H   0  0  0  0  0  0  0  0  0  0  0  0
  1 13  1  0
  2 16  1  0
  3 17  1  0
  4  5  2  0
  4  9  1  0
  5 11  1  0
  6  9  2  0
  6 12  1  0
  7 10  1  0
  7 13  1  0
  8 13  1  0
  8 14  2  0
  9 10  1  0
 10 15  1  0
 11 12  2  0
 11 16  1  0
 12 17  1  0
  1 18  1  0
  1 19  1  0
  1 20  1  0
  2 21  1  0
  2 22  1  0
  2 23  1  0
  3 24  1  0
  3 25  1  0
  3 26  1  0
  4 27  1  0
  5 28  1  0
  6 29  1  0
  7 30  1  0
  7 31  1  0
  8 32  1  0
 10 33  1  0
 15 34  1  0
M  END
