
     RDKit          3D

 34 34  0  0  0  0  0  0  0  0999 V2000
   -2.9155   -1.3766    1.0337 C   0  0  0  0  0  0  0  0  0  0  0  0
   -3.2454    0.5704   -0.3198 C   0  0  0  0  0  0  0  0  0  0  0  0
   -0.6828    3.0161    0.7428 C   0  0  0  0  0  0  0  0  0  0  0  0
    3.7647   -2.5942   -0.0854 C   0  0  0  0  0  0  0  0  0  0  0  0
   -0.5043   -0.1486   -1.6456 C   0  0  0  0  0  0  0  0  0  0  0  0
   -1.5230   -1.0418   -0.9078 C   0  0  0  0  0  0  0  0  0  0  0  0
    1.7144   -0.7126   -0.5869 C   0  0  0  0  0  0  0  0  0  0  0  0
    1.9355    1.8240    0.5471 C   0  0  0  0  0  0  0  0  0  0  0  0
    0.6940    0.2362   -0.8024 C   0  0  0  0  0  0  0  0  0  0  0  0
    2.9380    0.8722    0.7501 C   0  0  0  0  0  0  0  0  0  0  0  0
    0.8076    1.5005   -0.2093 C   0  0  0  0  0  0  0  0  0  0  0  0
    2.8378   -0.4092    0.1908 C   0  0  0  0  0  0  0  0  0  0  0  0
    4.4384    1.3828    1.8022 Br  0  0  0  0  0  0  0  0  0  0  0  0
   -2.2535   -0.3792    0.1902 N   0  0  0  0  0  0  0  0  0  0  0  0
   -0.1760    2.4236   -0.4525 O   0  0  0  0  0  0  0  0  0  0  0  0
    3.8654   -1.2793    0.4434 O   0  0  0  0  0  0  0  0  0  0  0  0
   -3.4344   -0.8926    1.8688 H   0  0  0  0  0  0  0  0  0  0  0  0
   -2.1791   -2.0555    1.4780 H   0  0  0  0  0  0  0  0  0  0  0  0
   -3.6438   -1.9745    0.4736 H   0  0  0  0  0  0  0  0  0  0  0  0
   -3.7590    1.0677    0.5110 H   0  0  0  0  0  0  0  0  0  0  0  0
   -2.7780    1.3656   -0.9072 H   0  0  0  0  0  0  0  0  0  0  0  0
   -4.0012    0.0816   -0.9453 H   0  0  0  0  0  0  0  0  0  0  0  0
   -1.6590    3.4523    0.5104 H   0  0  0  0  0  0  0  0  0  0  0  0
   -0.8256    2.2767    1.5391 H   0  0  0  0  0  0  0  0  0  0  0  0
   -0.0280    3.8257    1.0796 H   0  0  0  0  0  0  0  0  0  0  0  0
    3.7544   -2.5791   -1.1801 H   0  0  0  0  0  0  0  0  0  0  0  0
    4.6528   -3.1502    0.2304 H   0  0  0  0  0  0  0  0  0  0  0  0
    2.8878   -3.1150    0.3130 H   0  0  0  0  0  0  0  0  0  0  0  0
   -0.9877    0.7373   -2.0710 H   0  0  0  0  0  0  0  0  0  0  0  0
   -0.1327   -0.7026   -2.5188 H   0  0  0  0  0  0  0  0  0  0  0  0
   -0.9763   -1.9055   -0.5060 H   0  0  0  0  0  0  0  0  0  0  0  0
   -2.2349   -1.4459   -1.6401 H   0  0  0  0  0  0  0  0  0  0  0  0
    1.6029   -1.6899   -1.0461 H   0  0  0  0  0  0  0  0  0  0  0  0
    2.0462    2.8195    0.9649 H   0  0  0  0  0  0  0  0  0  0  0  0
  1 14  1  0
  2 14  1  0
  3 15  1  0
  4 16  1  0
  5  6  1  0
  5  9  1  0
  6 14  1  0
  7  9  2  0
  7 12  1  0
  8 10  1  0
  8 11  2  0
  9 11  1  0
 10 12  2  0
 10 13  1  0
 11 15  1  0
 12 16  1  0
  1 17  1  0
  1 18  1  0
  1 19  1  0
  2 20  1  0
  2 21  1  0
  2 22  1  0
  3 23  1  0
  3 24  1  0
  3 25  1  0
  4 26  1  0
  4 27  1  0
  4 28  1  0
  5 29  1  0
  5 30  1  0
  6 31  1  0
  6 32  1  0
  7 33  1  0
  8 34  1  0
M  END
