
     RDKit          3D

 32 32  0  0  0  0  0  0  0  0999 V2000
   -2.8421    0.0393    1.2907 C   0  0  0  0  0  0  0  0  0  0  0  0
   -3.1764    1.1155   -0.9697 C   0  0  0  0  0  0  0  0  0  0  0  0
    0.2200   -2.1313   -0.9028 C   0  0  0  0  0  0  0  0  0  0  0  0
    1.7604    0.5876    1.3962 C   0  0  0  0  0  0  0  0  0  0  0  0
    2.7020    0.4646   -0.8276 C   0  0  0  0  0  0  0  0  0  0  0  0
    3.0455    0.6724    1.9360 C   0  0  0  0  0  0  0  0  0  0  0  0
    3.9872    0.5493   -0.2872 C   0  0  0  0  0  0  0  0  0  0  0  0
    0.1837    0.3857   -0.5735 C   0  0  0  0  0  0  0  0  0  0  0  0
   -2.9605   -0.1989   -0.2151 C   0  0  0  0  0  0  0  0  0  0  0  0
   -0.5377   -0.9492   -0.2771 C   0  0  0  0  0  0  0  0  0  0  0  0
    1.5772    0.4804    0.0096 C   0  0  0  0  0  0  0  0  0  0  0  0
    4.1533    0.6523    1.0920 C   0  0  0  0  0  0  0  0  0  0  0  0
    5.7369    0.7566    1.7569 Cl  0  0  0  0  0  0  0  0  0  0  0  0
   -1.9015   -1.0112   -0.8191 N   0  0  0  0  0  0  0  0  0  0  0  0
   -3.7450    0.5305    1.6706 H   0  0  0  0  0  0  0  0  0  0  0  0
   -1.9912    0.6797    1.5425 H   0  0  0  0  0  0  0  0  0  0  0  0
   -2.7362   -0.9078    1.8308 H   0  0  0  0  0  0  0  0  0  0  0  0
   -4.0764    1.6215   -0.6025 H   0  0  0  0  0  0  0  0  0  0  0  0
   -2.3402    1.8089   -0.8527 H   0  0  0  0  0  0  0  0  0  0  0  0
   -3.3202    0.9355   -2.0409 H   0  0  0  0  0  0  0  0  0  0  0  0
   -0.3128   -3.0739   -0.7299 H   0  0  0  0  0  0  0  0  0  0  0  0
    0.3412   -2.0053   -1.9848 H   0  0  0  0  0  0  0  0  0  0  0  0
    1.2151   -2.2447   -0.4607 H   0  0  0  0  0  0  0  0  0  0  0  0
    0.9019    0.6074    2.0646 H   0  0  0  0  0  0  0  0  0  0  0  0
    2.5858    0.3827   -1.9062 H   0  0  0  0  0  0  0  0  0  0  0  0
    3.1743    0.7542    3.0118 H   0  0  0  0  0  0  0  0  0  0  0  0
    4.8511    0.5341   -0.9460 H   0  0  0  0  0  0  0  0  0  0  0  0
   -0.3816    1.2265   -0.1584 H   0  0  0  0  0  0  0  0  0  0  0  0
    0.2220    0.5561   -1.6576 H   0  0  0  0  0  0  0  0  0  0  0  0
   -3.8804   -0.7802   -0.3603 H   0  0  0  0  0  0  0  0  0  0  0  0
   -0.5597   -1.1350    0.8027 H   0  0  0  0  0  0  0  0  0  0  0  0
   -1.8958   -0.9031   -1.8325 H   0  0  0  0  0  0  0  0  0  0  0  0
  1  9  1  0
  2  9  1  0
  3 10  1  0
  4  6  2  0
  4 11  1  0
  5  7  1  0
  5 11  2  0
  6 12  1  0
  7 12  2  0
  8 10  1  0
  8 11  1  0
  9 14  1  0
 10 14  1  0
 12 13  1  0
  1 15  1  0
  1 16  1  0
  1 17  1  0
  2 18  1  0
  2 19  1  0
  2 20  1  0
  3 21  1  0
  3 22  1  0
  3 23  1  0
  4 24  1  0
  5 25  1  0
  6 26  1  0
  7 27  1  0
  8 28  1  0
  8 29  1  0
  9 30  1  0
 10 31  1  0
 14 32  1  0
M  END
