
     RDKit          3D

 32 32  0  0  0  0  0  0  0  0999 V2000
   -3.3040   -1.8157   -0.3650 C   0  0  0  0  0  0  0  0  0  0  0  0
    0.3516    2.7028   -0.8835 C   0  0  0  0  0  0  0  0  0  0  0  0
    2.4399   -1.2300   -0.1600 C   0  0  0  0  0  0  0  0  0  0  0  0
   -0.8847   -1.7322    1.3724 C   0  0  0  0  0  0  0  0  0  0  0  0
   -2.5468    0.3307   -1.3763 C   0  0  0  0  0  0  0  0  0  0  0  0
   -1.6737    1.4057   -1.4917 C   0  0  0  0  0  0  0  0  0  0  0  0
    1.0320    0.5179    1.0768 C   0  0  0  0  0  0  0  0  0  0  0  0
   -2.3044   -0.6923   -0.4535 C   0  0  0  0  0  0  0  0  0  0  0  0
   -0.5300    1.4962   -0.6874 C   0  0  0  0  0  0  0  0  0  0  0  0
    2.3383    0.2220    0.3046 C   0  0  0  0  0  0  0  0  0  0  0  0
   -1.1419   -0.6437    0.3542 C   0  0  0  0  0  0  0  0  0  0  0  0
   -0.2365    0.4541    0.2298 C   0  0  0  0  0  0  0  0  0  0  0  0
    3.4971    0.5141    1.1623 N   0  0  0  0  0  0  0  0  0  0  0  0
   -4.1516   -1.6571   -1.0408 H   0  0  0  0  0  0  0  0  0  0  0  0
   -2.8358   -2.7641   -0.6470 H   0  0  0  0  0  0  0  0  0  0  0  0
   -3.7098   -1.8865    0.6492 H   0  0  0  0  0  0  0  0  0  0  0  0
    0.7756    3.0584    0.0588 H   0  0  0  0  0  0  0  0  0  0  0  0
   -0.2211    3.5426   -1.2936 H   0  0  0  0  0  0  0  0  0  0  0  0
    1.1579    2.4716   -1.5853 H   0  0  0  0  0  0  0  0  0  0  0  0
    3.3752   -1.4007   -0.7056 H   0  0  0  0  0  0  0  0  0  0  0  0
    1.6203   -1.4872   -0.8384 H   0  0  0  0  0  0  0  0  0  0  0  0
    2.4173   -1.9259    0.6856 H   0  0  0  0  0  0  0  0  0  0  0  0
   -1.5788   -2.5721    1.2940 H   0  0  0  0  0  0  0  0  0  0  0  0
    0.1133   -2.1579    1.2411 H   0  0  0  0  0  0  0  0  0  0  0  0
   -0.9829   -1.3254    2.3841 H   0  0  0  0  0  0  0  0  0  0  0  0
   -3.4292    0.3030   -2.0118 H   0  0  0  0  0  0  0  0  0  0  0  0
   -1.8994    2.1857   -2.2162 H   0  0  0  0  0  0  0  0  0  0  0  0
    1.0819    1.5169    1.5294 H   0  0  0  0  0  0  0  0  0  0  0  0
    0.9645   -0.1486    1.9438 H   0  0  0  0  0  0  0  0  0  0  0  0
    2.4117    0.8644   -0.5778 H   0  0  0  0  0  0  0  0  0  0  0  0
    3.4974    1.5033    1.4086 H   0  0  0  0  0  0  0  0  0  0  0  0
    4.3567    0.3500    0.6392 H   0  0  0  0  0  0  0  0  0  0  0  0
  1  8  1  0
  2  9  1  0
  3 10  1  0
  4 11  1  0
  5  6  2  0
  5  8  1  0
  6  9  1  0
  7 10  1  0
  7 12  1  0
  8 11  2  0
  9 12  2  0
 10 13  1  0
 11 12  1  0
  1 14  1  0
  1 15  1  0
  1 16  1  0
  2 17  1  0
  2 18  1  0
  2 19  1  0
  3 20  1  0
  3 21  1  0
  3 22  1  0
  4 23  1  0
  4 24  1  0
  4 25  1  0
  5 26  1  0
  6 27  1  0
  7 28  1  0
  7 29  1  0
 10 30  1  0
 13 31  1  0
 13 32  1  0
M  END
