
     RDKit          3D

 33 33  0  0  0  0  0  0  0  0999 V2000
   -1.6539    1.1852    1.0322 C   0  0  0  0  0  0  0  0  0  0  0  0
   -3.6589    0.7637   -1.3553 C   0  0  0  0  0  0  0  0  0  0  0  0
   -3.8274   -0.7792    0.4757 C   0  0  0  0  0  0  0  0  0  0  0  0
    4.8943    0.4311   -1.7670 C   0  0  0  0  0  0  0  0  0  0  0  0
    2.6895   -0.3948    1.7476 C   0  0  0  0  0  0  0  0  0  0  0  0
    1.3349   -0.7022    1.6210 C   0  0  0  0  0  0  0  0  0  0  0  0
    3.4577   -0.1086    0.6158 C   0  0  0  0  0  0  0  0  0  0  0  0
   -0.7383   -1.0491    0.2091 C   0  0  0  0  0  0  0  0  0  0  0  0
    1.5143   -0.4392   -0.7704 C   0  0  0  0  0  0  0  0  0  0  0  0
   -1.6233    0.1807   -0.1315 C   0  0  0  0  0  0  0  0  0  0  0  0
    0.7321   -0.7255    0.3586 C   0  0  0  0  0  0  0  0  0  0  0  0
    2.8729   -0.1303   -0.6499 C   0  0  0  0  0  0  0  0  0  0  0  0
   -2.9628   -0.2690   -0.5868 N   0  0  0  0  0  0  0  0  0  0  0  0
    3.5068    0.1288   -1.8342 O   0  0  0  0  0  0  0  0  0  0  0  0
   -1.9898    0.7186    1.9641 H   0  0  0  0  0  0  0  0  0  0  0  0
   -2.3116    2.0329    0.8170 H   0  0  0  0  0  0  0  0  0  0  0  0
   -0.6569    1.6012    1.2122 H   0  0  0  0  0  0  0  0  0  0  0  0
   -3.9274    1.6336   -0.7469 H   0  0  0  0  0  0  0  0  0  0  0  0
   -3.0447    1.1044   -2.1962 H   0  0  0  0  0  0  0  0  0  0  0  0
   -4.5793    0.3588   -1.7913 H   0  0  0  0  0  0  0  0  0  0  0  0
   -3.3472   -1.5902    1.0314 H   0  0  0  0  0  0  0  0  0  0  0  0
   -4.7406   -1.2069    0.0455 H   0  0  0  0  0  0  0  0  0  0  0  0
   -4.1272   -0.0006    1.1853 H   0  0  0  0  0  0  0  0  0  0  0  0
    5.2487    0.6032   -2.7879 H   0  0  0  0  0  0  0  0  0  0  0  0
    5.4625   -0.4093   -1.3548 H   0  0  0  0  0  0  0  0  0  0  0  0
    5.0713    1.3477   -1.1946 H   0  0  0  0  0  0  0  0  0  0  0  0
    3.1501   -0.3782    2.7322 H   0  0  0  0  0  0  0  0  0  0  0  0
    0.7536   -0.9211    2.5138 H   0  0  0  0  0  0  0  0  0  0  0  0
    4.5069    0.1258    0.7579 H   0  0  0  0  0  0  0  0  0  0  0  0
   -0.8301   -1.8034   -0.5847 H   0  0  0  0  0  0  0  0  0  0  0  0
   -1.0945   -1.5371    1.1251 H   0  0  0  0  0  0  0  0  0  0  0  0
    1.0645   -0.4582   -1.7613 H   0  0  0  0  0  0  0  0  0  0  0  0
   -1.1463    0.6870   -0.9819 H   0  0  0  0  0  0  0  0  0  0  0  0
  1 10  1  0
  2 13  1  0
  3 13  1  0
  4 14  1  0
  5  6  2  0
  5  7  1  0
  6 11  1  0
  7 12  2  0
  8 10  1  0
  8 11  1  0
  9 11  2  0
  9 12  1  0
 10 13  1  0
 12 14  1  0
  1 15  1  0
  1 16  1  0
  1 17  1  0
  2 18  1  0
  2 19  1  0
  2 20  1  0
  3 21  1  0
  3 22  1  0
  3 23  1  0
  4 24  1  0
  4 25  1  0
  4 26  1  0
  5 27  1  0
  6 28  1  0
  7 29  1  0
  8 30  1  0
  8 31  1  0
  9 32  1  0
 10 33  1  0
M  END
