
     RDKit          3D

 33 33  0  0  0  0  0  0  0  0999 V2000
   -3.9788    0.0134   -0.2672 C   0  0  0  0  0  0  0  0  0  0  0  0
    2.4025   -1.1311   -0.5522 C   0  0  0  0  0  0  0  0  0  0  0  0
    3.8164    0.6276    1.4662 C   0  0  0  0  0  0  0  0  0  0  0  0
   -1.7432   -1.0923    1.7404 C   0  0  0  0  0  0  0  0  0  0  0  0
   -1.2313    0.6272   -2.8079 C   0  0  0  0  0  0  0  0  0  0  0  0
   -2.4748    0.3650   -2.2355 C   0  0  0  0  0  0  0  0  0  0  0  0
   -0.1101    0.7904   -1.9970 C   0  0  0  0  0  0  0  0  0  0  0  0
    1.0200    0.8696    0.2533 C   0  0  0  0  0  0  0  0  0  0  0  0
   -2.6143    0.2573   -0.8444 C   0  0  0  0  0  0  0  0  0  0  0  0
    1.7402   -0.4420    0.6465 C   0  0  0  0  0  0  0  0  0  0  0  0
   -0.2127    0.6689   -0.6033 C   0  0  0  0  0  0  0  0  0  0  0  0
   -1.4660    0.3652   -0.0401 C   0  0  0  0  0  0  0  0  0  0  0  0
    2.6988   -0.2598    1.7564 N   0  0  0  0  0  0  0  0  0  0  0  0
   -1.5484    0.2613    1.3264 O   0  0  0  0  0  0  0  0  0  0  0  0
   -4.1054    0.5426    0.6827 H   0  0  0  0  0  0  0  0  0  0  0  0
   -4.1362   -1.0580   -0.1110 H   0  0  0  0  0  0  0  0  0  0  0  0
   -4.7612    0.3824   -0.9395 H   0  0  0  0  0  0  0  0  0  0  0  0
    3.0730   -0.4564   -1.0944 H   0  0  0  0  0  0  0  0  0  0  0  0
    1.6486   -1.4925   -1.2592 H   0  0  0  0  0  0  0  0  0  0  0  0
    2.9817   -2.0043   -0.2311 H   0  0  0  0  0  0  0  0  0  0  0  0
    4.4628    0.6844    2.3481 H   0  0  0  0  0  0  0  0  0  0  0  0
    3.4876    1.6457    1.2386 H   0  0  0  0  0  0  0  0  0  0  0  0
    4.4344    0.2541    0.6449 H   0  0  0  0  0  0  0  0  0  0  0  0
   -1.4112   -1.8263    0.9965 H   0  0  0  0  0  0  0  0  0  0  0  0
   -2.7978   -1.2557    1.9798 H   0  0  0  0  0  0  0  0  0  0  0  0
   -1.1631   -1.2492    2.6549 H   0  0  0  0  0  0  0  0  0  0  0  0
   -1.1391    0.7196   -3.8871 H   0  0  0  0  0  0  0  0  0  0  0  0
   -3.3425    0.2609   -2.8835 H   0  0  0  0  0  0  0  0  0  0  0  0
    0.8483    1.0152   -2.4600 H   0  0  0  0  0  0  0  0  0  0  0  0
    0.7231    1.4187    1.1571 H   0  0  0  0  0  0  0  0  0  0  0  0
    1.7127    1.5401   -0.2723 H   0  0  0  0  0  0  0  0  0  0  0  0
    0.9936   -1.1468    1.0293 H   0  0  0  0  0  0  0  0  0  0  0  0
    2.1927    0.1048    2.5646 H   0  0  0  0  0  0  0  0  0  0  0  0
  1  9  1  0
  2 10  1  0
  3 13  1  0
  4 14  1  0
  5  6  2  0
  5  7  1  0
  6  9  1  0
  7 11  2  0
  8 10  1  0
  8 11  1  0
  9 12  2  0
 10 13  1  0
 11 12  1  0
 12 14  1  0
  1 15  1  0
  1 16  1  0
  1 17  1  0
  2 18  1  0
  2 19  1  0
  2 20  1  0
  3 21  1  0
  3 22  1  0
  3 23  1  0
  4 24  1  0
  4 25  1  0
  4 26  1  0
  5 27  1  0
  6 28  1  0
  7 29  1  0
  8 30  1  0
  8 31  1  0
 10 32  1  0
 13 33  1  0
M  END
