
     RDKit          3D

 34 34  0  0  0  0  0  0  0  0999 V2000
   -1.3331   -2.0932   -2.6071 C   0  0  0  0  0  0  0  0  0  0  0  0
   -2.3678   -2.5044    1.4211 C   0  0  0  0  0  0  0  0  0  0  0  0
    3.6458    0.0710    1.7744 C   0  0  0  0  0  0  0  0  0  0  0  0
   -1.4349   -0.8050   -1.7969 C   0  0  0  0  0  0  0  0  0  0  0  0
   -0.2582    2.3701   -0.4525 C   0  0  0  0  0  0  0  0  0  0  0  0
    0.8734    3.1576   -0.6561 C   0  0  0  0  0  0  0  0  0  0  0  0
   -1.3988    0.3182    0.4908 C   0  0  0  0  0  0  0  0  0  0  0  0
    1.0756    0.7743    0.7985 C   0  0  0  0  0  0  0  0  0  0  0  0
   -0.1681    1.1720    0.2720 C   0  0  0  0  0  0  0  0  0  0  0  0
   -1.3764   -1.0343   -0.2686 C   0  0  0  0  0  0  0  0  0  0  0  0
    2.0914    2.7455   -0.1328 C   0  0  0  0  0  0  0  0  0  0  0  0
    2.2128    1.5578    0.5963 C   0  0  0  0  0  0  0  0  0  0  0  0
   -2.5158   -1.8905    0.1108 N   0  0  0  0  0  0  0  0  0  0  0  0
    3.1877    3.5367   -0.3475 O   0  0  0  0  0  0  0  0  0  0  0  0
    3.4778    1.2840    1.0499 O   0  0  0  0  0  0  0  0  0  0  0  0
   -2.1923   -2.7484   -2.4351 H   0  0  0  0  0  0  0  0  0  0  0  0
   -0.4211   -2.6433   -2.3541 H   0  0  0  0  0  0  0  0  0  0  0  0
   -1.3022   -1.8611   -3.6766 H   0  0  0  0  0  0  0  0  0  0  0  0
   -3.2000   -3.1950    1.5905 H   0  0  0  0  0  0  0  0  0  0  0  0
   -2.3836   -1.7676    2.2288 H   0  0  0  0  0  0  0  0  0  0  0  0
   -1.4437   -3.0877    1.4853 H   0  0  0  0  0  0  0  0  0  0  0  0
    3.3989   -0.7971    1.1542 H   0  0  0  0  0  0  0  0  0  0  0  0
    3.0578    0.0789    2.6981 H   0  0  0  0  0  0  0  0  0  0  0  0
    4.7011   -0.0081    2.0525 H   0  0  0  0  0  0  0  0  0  0  0  0
   -2.3615   -0.2833   -2.0680 H   0  0  0  0  0  0  0  0  0  0  0  0
   -0.6068   -0.1568   -2.1059 H   0  0  0  0  0  0  0  0  0  0  0  0
   -1.2096    2.6967   -0.8665 H   0  0  0  0  0  0  0  0  0  0  0  0
    0.8082    4.0843   -1.2180 H   0  0  0  0  0  0  0  0  0  0  0  0
   -1.4784    0.1527    1.5723 H   0  0  0  0  0  0  0  0  0  0  0  0
   -2.2986    0.8832    0.2128 H   0  0  0  0  0  0  0  0  0  0  0  0
    1.1247   -0.1507    1.3640 H   0  0  0  0  0  0  0  0  0  0  0  0
   -0.4416   -1.5676   -0.0517 H   0  0  0  0  0  0  0  0  0  0  0  0
   -3.3849   -1.3593    0.0686 H   0  0  0  0  0  0  0  0  0  0  0  0
    3.9222    3.0704    0.0967 H   0  0  0  0  0  0  0  0  0  0  0  0
  1  4  1  0
  2 13  1  0
  3 15  1  0
  4 10  1  0
  5  6  2  0
  5  9  1  0
  6 11  1  0
  7  9  1  0
  7 10  1  0
  8  9  2  0
  8 12  1  0
 10 13  1  0
 11 12  2  0
 11 14  1  0
 12 15  1  0
  1 16  1  0
  1 17  1  0
  1 18  1  0
  2 19  1  0
  2 20  1  0
  2 21  1  0
  3 22  1  0
  3 23  1  0
  3 24  1  0
  4 25  1  0
  4 26  1  0
  5 27  1  0
  6 28  1  0
  7 29  1  0
  7 30  1  0
  8 31  1  0
 10 32  1  0
 13 33  1  0
 14 34  1  0
M  END
