
     RDKit          3D

 32 33  0  0  0  0  0  0  0  0999 V2000
    4.1640    0.7907   -0.3589 C   0  0  0  0  0  0  0  0  0  0  0  0
   -4.5384    0.9868   -0.4469 C   0  0  0  0  0  0  0  0  0  0  0  0
   -4.0793    0.0246   -1.3445 C   0  0  0  0  0  0  0  0  0  0  0  0
   -3.8120    1.2621    0.7099 C   0  0  0  0  0  0  0  0  0  0  0  0
   -2.8912   -0.6626   -1.0873 C   0  0  0  0  0  0  0  0  0  0  0  0
   -2.6247    0.5757    0.9684 C   0  0  0  0  0  0  0  0  0  0  0  0
    2.0275   -0.0743   -1.1391 C   0  0  0  0  0  0  0  0  0  0  0  0
    2.7341   -0.4036    1.1741 C   0  0  0  0  0  0  0  0  0  0  0  0
    0.7576    0.4931   -0.4640 C   0  0  0  0  0  0  0  0  0  0  0  0
    1.3581   -1.0898    1.2941 C   0  0  0  0  0  0  0  0  0  0  0  0
   -0.8701   -1.1536    0.3599 C   0  0  0  0  0  0  0  0  0  0  0  0
   -2.1459   -0.3890    0.0690 C   0  0  0  0  0  0  0  0  0  0  0  0
    3.1745   -0.2756   -0.2306 N   0  0  0  0  0  0  0  0  0  0  0  0
    0.2706   -0.2872    0.6943 N   0  0  0  0  0  0  0  0  0  0  0  0
    5.0139    0.6096    0.3086 H   0  0  0  0  0  0  0  0  0  0  0  0
    4.5666    0.8197   -1.3775 H   0  0  0  0  0  0  0  0  0  0  0  0
    3.7441    1.7758   -0.1259 H   0  0  0  0  0  0  0  0  0  0  0  0
   -5.4629    1.5213   -0.6478 H   0  0  0  0  0  0  0  0  0  0  0  0
   -4.6477   -0.1922   -2.2450 H   0  0  0  0  0  0  0  0  0  0  0  0
   -4.1681    2.0111    1.4119 H   0  0  0  0  0  0  0  0  0  0  0  0
   -2.5501   -1.4126   -1.7970 H   0  0  0  0  0  0  0  0  0  0  0  0
   -2.0625    0.7981    1.8733 H   0  0  0  0  0  0  0  0  0  0  0  0
    2.3012    0.5584   -1.9928 H   0  0  0  0  0  0  0  0  0  0  0  0
    1.7774   -1.0527   -1.5697 H   0  0  0  0  0  0  0  0  0  0  0  0
    2.6756    0.5783    1.6640 H   0  0  0  0  0  0  0  0  0  0  0  0
    3.4788   -0.9923    1.7224 H   0  0  0  0  0  0  0  0  0  0  0  0
   -0.0192    0.6300   -1.2253 H   0  0  0  0  0  0  0  0  0  0  0  0
    0.9869    1.5032   -0.0998 H   0  0  0  0  0  0  0  0  0  0  0  0
    1.4246   -2.0809    0.8240 H   0  0  0  0  0  0  0  0  0  0  0  0
    1.1292   -1.2514    2.3539 H   0  0  0  0  0  0  0  0  0  0  0  0
   -1.0972   -1.8130    1.2088 H   0  0  0  0  0  0  0  0  0  0  0  0
   -0.6153   -1.8077   -0.4845 H   0  0  0  0  0  0  0  0  0  0  0  0
  1 13  1  0
  2  3  2  0
  2  4  1  0
  3  5  1  0
  4  6  2  0
  5 12  2  0
  6 12  1  0
  7  9  1  0
  7 13  1  0
  8 10  1  0
  8 13  1  0
  9 14  1  0
 10 14  1  0
 11 12  1  0
 11 14  1  0
  1 15  1  0
  1 16  1  0
  1 17  1  0
  2 18  1  0
  3 19  1  0
  4 20  1  0
  5 21  1  0
  6 22  1  0
  7 23  1  0
  7 24  1  0
  8 25  1  0
  8 26  1  0
  9 27  1  0
  9 28  1  0
 10 29  1  0
 10 30  1  0
 11 31  1  0
 11 32  1  0
M  END
