
     RDKit          3D

 35 35  0  0  0  0  0  0  0  0999 V2000
    2.0583   -2.3096    0.4397 C   0  0  0  0  0  0  0  0  0  0  0  0
    1.5428    3.1524    1.4184 C   0  0  0  0  0  0  0  0  0  0  0  0
   -2.8980   -1.6181   -2.0623 C   0  0  0  0  0  0  0  0  0  0  0  0
   -4.0699    0.3742    1.7701 C   0  0  0  0  0  0  0  0  0  0  0  0
    1.9652   -0.2352   -1.0454 C   0  0  0  0  0  0  0  0  0  0  0  0
   -0.5510   -0.4160   -1.0491 C   0  0  0  0  0  0  0  0  0  0  0  0
   -0.8086    1.8160    0.5956 C   0  0  0  0  0  0  0  0  0  0  0  0
    2.7328   -0.9900    0.0622 C   0  0  0  0  0  0  0  0  0  0  0  0
    0.6008    0.2679   -0.6155 C   0  0  0  0  0  0  0  0  0  0  0  0
    0.4666    1.3968    0.2098 C   0  0  0  0  0  0  0  0  0  0  0  0
   -1.8298    0.0049   -0.6693 C   0  0  0  0  0  0  0  0  0  0  0  0
   -1.9550    1.1224    0.1750 C   0  0  0  0  0  0  0  0  0  0  0  0
    4.1043   -1.2900   -0.3775 N   0  0  0  0  0  0  0  0  0  0  0  0
    1.6354    2.0114    0.5745 O   0  0  0  0  0  0  0  0  0  0  0  0
   -2.9898   -0.6099   -1.0650 O   0  0  0  0  0  0  0  0  0  0  0  0
   -3.5385    1.7634    0.7349 S   0  0  0  0  0  0  0  0  0  0  0  0
    1.9343   -2.9625   -0.4316 H   0  0  0  0  0  0  0  0  0  0  0  0
    1.0701   -2.1371    0.8780 H   0  0  0  0  0  0  0  0  0  0  0  0
    2.6503   -2.8522    1.1858 H   0  0  0  0  0  0  0  0  0  0  0  0
    2.5597    3.5073    1.6120 H   0  0  0  0  0  0  0  0  0  0  0  0
    1.0915    2.8951    2.3822 H   0  0  0  0  0  0  0  0  0  0  0  0
    0.9958    3.9635    0.9266 H   0  0  0  0  0  0  0  0  0  0  0  0
   -3.9159   -1.9266   -2.3196 H   0  0  0  0  0  0  0  0  0  0  0  0
   -2.4261   -1.2358   -2.9735 H   0  0  0  0  0  0  0  0  0  0  0  0
   -2.3710   -2.4989   -1.6813 H   0  0  0  0  0  0  0  0  0  0  0  0
   -4.9787    0.6600    2.3068 H   0  0  0  0  0  0  0  0  0  0  0  0
   -4.2944   -0.5085    1.1672 H   0  0  0  0  0  0  0  0  0  0  0  0
   -3.2990    0.1263    2.5050 H   0  0  0  0  0  0  0  0  0  0  0  0
    2.5532    0.6259   -1.3915 H   0  0  0  0  0  0  0  0  0  0  0  0
    1.8589   -0.8790   -1.9294 H   0  0  0  0  0  0  0  0  0  0  0  0
   -0.4182   -1.2866   -1.6840 H   0  0  0  0  0  0  0  0  0  0  0  0
   -0.9410    2.6865    1.2304 H   0  0  0  0  0  0  0  0  0  0  0  0
    2.8031   -0.3708    0.9635 H   0  0  0  0  0  0  0  0  0  0  0  0
    4.0810   -1.8308   -1.2408 H   0  0  0  0  0  0  0  0  0  0  0  0
    4.5807   -0.4165   -0.6020 H   0  0  0  0  0  0  0  0  0  0  0  0
  1  8  1  0
  2 14  1  0
  3 15  1  0
  4 16  1  0
  5  8  1  0
  5  9  1  0
  6  9  2  0
  6 11  1  0
  7 10  2  0
  7 12  1  0
  8 13  1  0
  9 10  1  0
 10 14  1  0
 11 12  2  0
 11 15  1  0
 12 16  1  0
  1 17  1  0
  1 18  1  0
  1 19  1  0
  2 20  1  0
  2 21  1  0
  2 22  1  0
  3 23  1  0
  3 24  1  0
  3 25  1  0
  4 26  1  0
  4 27  1  0
  4 28  1  0
  5 29  1  0
  5 30  1  0
  6 31  1  0
  7 32  1  0
  8 33  1  0
 13 34  1  0
 13 35  1  0
M  END
