
     RDKit          3D

 35 35  0  0  0  0  0  0  0  0999 V2000
   -2.1597   -2.0590    0.0733 C   0  0  0  0  0  0  0  0  0  0  0  0
   -4.4779   -0.0806   -0.4395 C   0  0  0  0  0  0  0  0  0  0  0  0
    4.8113   -1.0604   -1.5235 C   0  0  0  0  0  0  0  0  0  0  0  0
    2.4384    1.6123    2.5971 C   0  0  0  0  0  0  0  0  0  0  0  0
    0.6228   -0.5419   -1.5820 C   0  0  0  0  0  0  0  0  0  0  0  0
    2.0075   -0.7286   -1.5880 C   0  0  0  0  0  0  0  0  0  0  0  0
   -1.4983    0.3331   -0.5149 C   0  0  0  0  0  0  0  0  0  0  0  0
    0.7915    0.6325    0.5205 C   0  0  0  0  0  0  0  0  0  0  0  0
   -2.2359   -0.5839    0.4959 C   0  0  0  0  0  0  0  0  0  0  0  0
    0.0028    0.1371   -0.5293 C   0  0  0  0  0  0  0  0  0  0  0  0
    2.7943   -0.2376   -0.5411 C   0  0  0  0  0  0  0  0  0  0  0  0
    2.1804    0.4509    0.5240 C   0  0  0  0  0  0  0  0  0  0  0  0
   -3.6512   -0.2223    0.7581 N   0  0  0  0  0  0  0  0  0  0  0  0
   -3.6248    1.1064    1.3533 O   0  0  0  0  0  0  0  0  0  0  0  0
    4.1585   -0.3761   -0.4645 O   0  0  0  0  0  0  0  0  0  0  0  0
    3.0195    0.9027    1.5133 O   0  0  0  0  0  0  0  0  0  0  0  0
   -2.5439   -2.2160   -0.9399 H   0  0  0  0  0  0  0  0  0  0  0  0
   -1.1262   -2.4202    0.0984 H   0  0  0  0  0  0  0  0  0  0  0  0
   -2.7345   -2.6929    0.7582 H   0  0  0  0  0  0  0  0  0  0  0  0
   -5.5060    0.1595   -0.1458 H   0  0  0  0  0  0  0  0  0  0  0  0
   -4.1315    0.7156   -1.1066 H   0  0  0  0  0  0  0  0  0  0  0  0
   -4.5265   -1.0169   -1.0034 H   0  0  0  0  0  0  0  0  0  0  0  0
    4.4721   -2.0993   -1.5915 H   0  0  0  0  0  0  0  0  0  0  0  0
    4.6770   -0.5361   -2.4754 H   0  0  0  0  0  0  0  0  0  0  0  0
    5.8828   -1.0755   -1.3018 H   0  0  0  0  0  0  0  0  0  0  0  0
    1.9532    2.5317    2.2534 H   0  0  0  0  0  0  0  0  0  0  0  0
    1.7403    0.9795    3.1550 H   0  0  0  0  0  0  0  0  0  0  0  0
    3.2442    1.8983    3.2800 H   0  0  0  0  0  0  0  0  0  0  0  0
    0.0329   -0.9352   -2.4071 H   0  0  0  0  0  0  0  0  0  0  0  0
    2.4411   -1.2631   -2.4262 H   0  0  0  0  0  0  0  0  0  0  0  0
   -1.8925    0.1778   -1.5275 H   0  0  0  0  0  0  0  0  0  0  0  0
   -1.6855    1.3894   -0.2819 H   0  0  0  0  0  0  0  0  0  0  0  0
    0.2936    1.1612    1.3273 H   0  0  0  0  0  0  0  0  0  0  0  0
   -1.7226   -0.5202    1.4652 H   0  0  0  0  0  0  0  0  0  0  0  0
   -4.0469    0.9340    2.2168 H   0  0  0  0  0  0  0  0  0  0  0  0
  1  9  1  0
  2 13  1  0
  3 15  1  0
  4 16  1  0
  5  6  2  0
  5 10  1  0
  6 11  1  0
  7  9  1  0
  7 10  1  0
  8 10  2  0
  8 12  1  0
  9 13  1  0
 11 12  2  0
 11 15  1  0
 12 16  1  0
 13 14  1  0
  1 17  1  0
  1 18  1  0
  1 19  1  0
  2 20  1  0
  2 21  1  0
  2 22  1  0
  3 23  1  0
  3 24  1  0
  3 25  1  0
  4 26  1  0
  4 27  1  0
  4 28  1  0
  5 29  1  0
  6 30  1  0
  7 31  1  0
  7 32  1  0
  8 33  1  0
  9 34  1  0
 14 35  1  0
M  END
