
     RDKit          3D

 36 36  0  0  0  0  0  0  0  0999 V2000
   -2.0841    3.2609   -1.1468 C   0  0  0  0  0  0  0  0  0  0  0  0
   -0.6954   -2.7548    2.5628 C   0  0  0  0  0  0  0  0  0  0  0  0
   -3.8248   -0.9388   -0.2429 C   0  0  0  0  0  0  0  0  0  0  0  0
    2.2645    0.7715    0.1664 C   0  0  0  0  0  0  0  0  0  0  0  0
   -0.1484    1.4111   -0.2345 C   0  0  0  0  0  0  0  0  0  0  0  0
    0.3170   -0.5790    1.0704 C   0  0  0  0  0  0  0  0  0  0  0  0
    2.3370   -0.1320   -2.2447 C   0  0  0  0  0  0  0  0  0  0  0  0
    0.7800    0.5269    0.3404 C   0  0  0  0  0  0  0  0  0  0  0  0
    2.9930   -0.1418   -0.8504 C   0  0  0  0  0  0  0  0  0  0  0  0
   -1.5215    1.2019   -0.0878 C   0  0  0  0  0  0  0  0  0  0  0  0
   -1.0517   -0.8129    1.2248 C   0  0  0  0  0  0  0  0  0  0  0  0
   -1.9618    0.0759    0.6277 C   0  0  0  0  0  0  0  0  0  0  0  0
    3.1560   -1.5183   -0.3473 N   0  0  0  0  0  0  0  0  0  0  0  0
    2.3188    1.1897   -2.7780 O   0  0  0  0  0  0  0  0  0  0  0  0
   -2.4963    2.0091   -0.6161 O   0  0  0  0  0  0  0  0  0  0  0  0
   -1.5948   -1.8654    1.9166 O   0  0  0  0  0  0  0  0  0  0  0  0
   -3.3149   -0.1202    0.8077 O   0  0  0  0  0  0  0  0  0  0  0  0
   -2.9841    3.8217   -1.4173 H   0  0  0  0  0  0  0  0  0  0  0  0
   -1.5366    3.8498   -0.4033 H   0  0  0  0  0  0  0  0  0  0  0  0
   -1.4927    3.1240   -2.0579 H   0  0  0  0  0  0  0  0  0  0  0  0
   -0.0612   -3.2721    1.8353 H   0  0  0  0  0  0  0  0  0  0  0  0
   -0.0936   -2.2335    3.3145 H   0  0  0  0  0  0  0  0  0  0  0  0
   -1.2901   -3.5128    3.0817 H   0  0  0  0  0  0  0  0  0  0  0  0
   -3.3598   -1.9307   -0.2399 H   0  0  0  0  0  0  0  0  0  0  0  0
   -4.8977   -1.0700   -0.0735 H   0  0  0  0  0  0  0  0  0  0  0  0
   -3.6941   -0.4627   -1.2209 H   0  0  0  0  0  0  0  0  0  0  0  0
    2.7460    0.6864    1.1505 H   0  0  0  0  0  0  0  0  0  0  0  0
    2.4215    1.8181   -0.1282 H   0  0  0  0  0  0  0  0  0  0  0  0
    0.2315    2.2543   -0.8038 H   0  0  0  0  0  0  0  0  0  0  0  0
    1.0524   -1.2491    1.5038 H   0  0  0  0  0  0  0  0  0  0  0  0
    2.9114   -0.7586   -2.9363 H   0  0  0  0  0  0  0  0  0  0  0  0
    1.3118   -0.5157   -2.2143 H   0  0  0  0  0  0  0  0  0  0  0  0
    4.0032    0.2750   -0.9605 H   0  0  0  0  0  0  0  0  0  0  0  0
    3.6811   -1.4930    0.5264 H   0  0  0  0  0  0  0  0  0  0  0  0
    3.7272   -2.0511   -1.0030 H   0  0  0  0  0  0  0  0  0  0  0  0
    1.8512    1.1360   -3.6299 H   0  0  0  0  0  0  0  0  0  0  0  0
  1 15  1  0
  2 16  1  0
  3 17  1  0
  4  8  1  0
  4  9  1  0
  5  8  2  0
  5 10  1  0
  6  8  1  0
  6 11  2  0
  7  9  1  0
  7 14  1  0
  9 13  1  0
 10 12  2  0
 10 15  1  0
 11 12  1  0
 11 16  1  0
 12 17  1  0
  1 18  1  0
  1 19  1  0
  1 20  1  0
  2 21  1  0
  2 22  1  0
  2 23  1  0
  3 24  1  0
  3 25  1  0
  3 26  1  0
  4 27  1  0
  4 28  1  0
  5 29  1  0
  6 30  1  0
  7 31  1  0
  7 32  1  0
  9 33  1  0
 13 34  1  0
 13 35  1  0
 14 36  1  0
M  END
