
     RDKit          3D

 35 35  0  0  0  0  0  0  0  0999 V2000
    3.5031    1.8152   -0.0476 C   0  0  0  0  0  0  0  0  0  0  0  0
    2.7965   -1.7840   -2.0655 C   0  0  0  0  0  0  0  0  0  0  0  0
   -1.0186    2.8877    2.2020 C   0  0  0  0  0  0  0  0  0  0  0  0
   -2.5695   -0.6401   -2.0809 C   0  0  0  0  0  0  0  0  0  0  0  0
    1.1053    1.7594    0.7172 C   0  0  0  0  0  0  0  0  0  0  0  0
    0.6575   -0.6403   -0.6157 C   0  0  0  0  0  0  0  0  0  0  0  0
   -1.8083   -1.7009    1.3452 C   0  0  0  0  0  0  0  0  0  0  0  0
    2.1503    1.1578   -0.0054 C   0  0  0  0  0  0  0  0  0  0  0  0
   -0.3991   -0.0337    0.0947 C   0  0  0  0  0  0  0  0  0  0  0  0
    1.9235   -0.0538   -0.6753 C   0  0  0  0  0  0  0  0  0  0  0  0
   -0.1624    1.1724    0.7767 C   0  0  0  0  0  0  0  0  0  0  0  0
   -1.7647   -0.7079    0.1565 C   0  0  0  0  0  0  0  0  0  0  0  0
   -3.1139   -2.3750    1.4594 N   0  0  0  0  0  0  0  0  0  0  0  0
    2.9986   -0.5737   -1.3470 O   0  0  0  0  0  0  0  0  0  0  0  0
   -1.2261    1.6867    1.4697 O   0  0  0  0  0  0  0  0  0  0  0  0
   -2.0263   -1.4596   -1.0518 O   0  0  0  0  0  0  0  0  0  0  0  0
    3.5105    2.7587    0.5083 H   0  0  0  0  0  0  0  0  0  0  0  0
    4.2567    1.1599    0.4010 H   0  0  0  0  0  0  0  0  0  0  0  0
    3.7838    2.0396   -1.0818 H   0  0  0  0  0  0  0  0  0  0  0  0
    2.5342   -2.6047   -1.3899 H   0  0  0  0  0  0  0  0  0  0  0  0
    2.0425   -1.6577   -2.8496 H   0  0  0  0  0  0  0  0  0  0  0  0
    3.7411   -2.0444   -2.5526 H   0  0  0  0  0  0  0  0  0  0  0  0
   -1.9592    3.1411    2.7005 H   0  0  0  0  0  0  0  0  0  0  0  0
   -0.7624    3.7170    1.5347 H   0  0  0  0  0  0  0  0  0  0  0  0
   -0.2578    2.7514    2.9776 H   0  0  0  0  0  0  0  0  0  0  0  0
   -1.8905    0.1801   -2.3315 H   0  0  0  0  0  0  0  0  0  0  0  0
   -2.7092   -1.2590   -2.9713 H   0  0  0  0  0  0  0  0  0  0  0  0
   -3.5440   -0.2448   -1.7785 H   0  0  0  0  0  0  0  0  0  0  0  0
    1.3122    2.6933    1.2301 H   0  0  0  0  0  0  0  0  0  0  0  0
    0.4556   -1.5820   -1.1181 H   0  0  0  0  0  0  0  0  0  0  0  0
   -1.5927   -1.1875    2.2885 H   0  0  0  0  0  0  0  0  0  0  0  0
   -1.0461   -2.4773    1.2052 H   0  0  0  0  0  0  0  0  0  0  0  0
   -2.5639    0.0338    0.2829 H   0  0  0  0  0  0  0  0  0  0  0  0
   -3.3396   -2.7495    0.5346 H   0  0  0  0  0  0  0  0  0  0  0  0
   -3.0171   -3.1781    2.0777 H   0  0  0  0  0  0  0  0  0  0  0  0
  1  8  1  0
  2 14  1  0
  3 15  1  0
  4 16  1  0
  5  8  2  0
  5 11  1  0
  6  9  1  0
  6 10  2  0
  7 12  1  0
  7 13  1  0
  8 10  1  0
  9 11  2  0
  9 12  1  0
 10 14  1  0
 11 15  1  0
 12 16  1  0
  1 17  1  0
  1 18  1  0
  1 19  1  0
  2 20  1  0
  2 21  1  0
  2 22  1  0
  3 23  1  0
  3 24  1  0
  3 25  1  0
  4 26  1  0
  4 27  1  0
  4 28  1  0
  5 29  1  0
  6 30  1  0
  7 31  1  0
  7 32  1  0
 12 33  1  0
 13 34  1  0
 13 35  1  0
M  END
