
     RDKit          3D

 29 31  0  0  0  0  0  0  0  0999 V2000
    2.6993    1.0523    0.2644 C   0  0  0  0  0  0  0  0  0  0  0  0
   -2.4932   -2.4760    0.7898 C   0  0  0  0  0  0  0  0  0  0  0  0
   -0.4825    2.5996   -0.5029 C   0  0  0  0  0  0  0  0  0  0  0  0
   -1.5037   -3.2433    0.2212 C   0  0  0  0  0  0  0  0  0  0  0  0
   -1.4869    3.3500    0.0632 C   0  0  0  0  0  0  0  0  0  0  0  0
    1.0834   -0.1569   -1.3149 C   0  0  0  0  0  0  0  0  0  0  0  0
   -2.6858    0.1258    0.8541 C   0  0  0  0  0  0  0  0  0  0  0  0
    2.3592   -0.2567   -0.4445 C   0  0  0  0  0  0  0  0  0  0  0  0
   -2.1336   -1.1231    0.5568 C   0  0  0  0  0  0  0  0  0  0  0  0
   -0.8086    1.2343   -0.2663 C   0  0  0  0  0  0  0  0  0  0  0  0
   -0.2258   -0.0198   -0.5665 C   0  0  0  0  0  0  0  0  0  0  0  0
   -2.0116    1.2636    0.4324 C   0  0  0  0  0  0  0  0  0  0  0  0
   -0.9309   -1.1592   -0.1409 C   0  0  0  0  0  0  0  0  0  0  0  0
    2.3013   -1.3272    0.5516 N   0  0  0  0  0  0  0  0  0  0  0  0
   -2.4205    2.5457    0.6326 O   0  0  0  0  0  0  0  0  0  0  0  0
   -0.5554   -2.4565   -0.3491 O   0  0  0  0  0  0  0  0  0  0  0  0
    2.7612    1.8776   -0.4528 H   0  0  0  0  0  0  0  0  0  0  0  0
    1.9545    1.3134    1.0236 H   0  0  0  0  0  0  0  0  0  0  0  0
    3.6711    0.9814    0.7665 H   0  0  0  0  0  0  0  0  0  0  0  0
   -3.3668   -2.8447    1.3077 H   0  0  0  0  0  0  0  0  0  0  0  0
    0.3816    2.9892   -1.0210 H   0  0  0  0  0  0  0  0  0  0  0  0
   -1.3364   -4.3081    0.1400 H   0  0  0  0  0  0  0  0  0  0  0  0
   -1.6756    4.4116    0.1421 H   0  0  0  0  0  0  0  0  0  0  0  0
    1.0230   -1.0503   -1.9514 H   0  0  0  0  0  0  0  0  0  0  0  0
    1.1878    0.6848   -2.0117 H   0  0  0  0  0  0  0  0  0  0  0  0
   -3.6206    0.2139    1.3973 H   0  0  0  0  0  0  0  0  0  0  0  0
    3.1862   -0.4857   -1.1288 H   0  0  0  0  0  0  0  0  0  0  0  0
    3.2384   -1.5688    0.8662 H   0  0  0  0  0  0  0  0  0  0  0  0
    1.8908   -2.1667    0.1413 H   0  0  0  0  0  0  0  0  0  0  0  0
  1  8  1  0
  2  4  2  0
  2  9  1  0
  3  5  2  0
  3 10  1  0
  4 16  1  0
  5 15  1  0
  6  8  1  0
  6 11  1  0
  7  9  2  0
  7 12  1  0
  8 14  1  0
  9 13  1  0
 10 11  1  0
 10 12  2  0
 11 13  2  0
 12 15  1  0
 13 16  1  0
  1 17  1  0
  1 18  1  0
  1 19  1  0
  2 20  1  0
  3 21  1  0
  4 22  1  0
  5 23  1  0
  6 24  1  0
  6 25  1  0
  7 26  1  0
  8 27  1  0
 14 28  1  0
 14 29  1  0
M  END
