
     RDKit          3D

 35 36  0  0  0  0  0  0  0  0999 V2000
   -3.0063    1.9738    1.6169 C   0  0  0  0  0  0  0  0  0  0  0  0
   -3.3524   -1.9413   -0.5181 C   0  0  0  0  0  0  0  0  0  0  0  0
   -3.0332    1.0441    0.4128 C   0  0  0  0  0  0  0  0  0  0  0  0
    0.9416   -1.1973   -1.9788 C   0  0  0  0  0  0  0  0  0  0  0  0
    2.1188   -0.5112   -2.2862 C   0  0  0  0  0  0  0  0  0  0  0  0
    4.3373    1.7969   -0.6699 C   0  0  0  0  0  0  0  0  0  0  0  0
    4.2922    1.1660    0.7118 C   0  0  0  0  0  0  0  0  0  0  0  0
   -0.8451   -1.9286   -0.3418 C   0  0  0  0  0  0  0  0  0  0  0  0
    1.1349   -0.5000    0.3283 C   0  0  0  0  0  0  0  0  0  0  0  0
   -2.1100   -1.0445   -0.4669 C   0  0  0  0  0  0  0  0  0  0  0  0
    0.4385   -1.1978   -0.6691 C   0  0  0  0  0  0  0  0  0  0  0  0
    2.7979    0.1846   -1.2894 C   0  0  0  0  0  0  0  0  0  0  0  0
    2.3174    0.1731    0.0234 C   0  0  0  0  0  0  0  0  0  0  0  0
   -2.1875   -0.1166    0.6735 N   0  0  0  0  0  0  0  0  0  0  0  0
    3.9338    0.8541   -1.6693 O   0  0  0  0  0  0  0  0  0  0  0  0
    2.9507    0.8094    1.0614 O   0  0  0  0  0  0  0  0  0  0  0  0
   -1.9882    2.3181    1.8289 H   0  0  0  0  0  0  0  0  0  0  0  0
   -3.3941    1.4760    2.5121 H   0  0  0  0  0  0  0  0  0  0  0  0
   -3.6269    2.8553    1.4262 H   0  0  0  0  0  0  0  0  0  0  0  0
   -4.2676   -1.3566   -0.6543 H   0  0  0  0  0  0  0  0  0  0  0  0
   -3.4591   -2.5309    0.3995 H   0  0  0  0  0  0  0  0  0  0  0  0
   -3.2879   -2.6405   -1.3591 H   0  0  0  0  0  0  0  0  0  0  0  0
   -4.0685    0.7449    0.2201 H   0  0  0  0  0  0  0  0  0  0  0  0
   -2.6671    1.5922   -0.4627 H   0  0  0  0  0  0  0  0  0  0  0  0
    0.4167   -1.7278   -2.7699 H   0  0  0  0  0  0  0  0  0  0  0  0
    2.4984   -0.5091   -3.3039 H   0  0  0  0  0  0  0  0  0  0  0  0
    3.6822    2.6747   -0.7329 H   0  0  0  0  0  0  0  0  0  0  0  0
    5.3573    2.1149   -0.9073 H   0  0  0  0  0  0  0  0  0  0  0  0
    4.9173    0.2659    0.7631 H   0  0  0  0  0  0  0  0  0  0  0  0
    4.6531    1.8752    1.4633 H   0  0  0  0  0  0  0  0  0  0  0  0
   -0.9268   -2.7890   -1.0199 H   0  0  0  0  0  0  0  0  0  0  0  0
   -0.7736   -2.3637    0.6646 H   0  0  0  0  0  0  0  0  0  0  0  0
    0.7557   -0.4784    1.3470 H   0  0  0  0  0  0  0  0  0  0  0  0
   -2.0457   -0.4805   -1.4067 H   0  0  0  0  0  0  0  0  0  0  0  0
   -2.5038   -0.6055    1.5096 H   0  0  0  0  0  0  0  0  0  0  0  0
  1  3  1  0
  2 10  1  0
  3 14  1  0
  4  5  2  0
  4 11  1  0
  5 12  1  0
  6  7  1  0
  6 15  1  0
  7 16  1  0
  8 10  1  0
  8 11  1  0
  9 11  2  0
  9 13  1  0
 10 14  1  0
 12 13  2  0
 12 15  1  0
 13 16  1  0
  1 17  1  0
  1 18  1  0
  1 19  1  0
  2 20  1  0
  2 21  1  0
  2 22  1  0
  3 23  1  0
  3 24  1  0
  4 25  1  0
  5 26  1  0
  6 27  1  0
  6 28  1  0
  7 29  1  0
  7 30  1  0
  8 31  1  0
  8 32  1  0
  9 33  1  0
 10 34  1  0
 14 35  1  0
M  END
