
     RDKit          3D

 32 33  0  0  0  0  0  0  0  0999 V2000
   -3.8785    1.6512    0.2324 C   0  0  0  0  0  0  0  0  0  0  0  0
   -1.0627   -2.2853    0.5928 C   0  0  0  0  0  0  0  0  0  0  0  0
   -3.1289    0.6136   -0.5905 C   0  0  0  0  0  0  0  0  0  0  0  0
    0.7374    1.1091   -0.0288 C   0  0  0  0  0  0  0  0  0  0  0  0
    1.8342    1.6823    0.6342 C   0  0  0  0  0  0  0  0  0  0  0  0
    4.3227    1.1713    1.2595 C   0  0  0  0  0  0  0  0  0  0  0  0
    5.0623    0.0469    0.9721 C   0  0  0  0  0  0  0  0  0  0  0  0
   -0.3885   -0.7538   -1.3283 C   0  0  0  0  0  0  0  0  0  0  0  0
    2.0131   -0.8939   -0.5546 C   0  0  0  0  0  0  0  0  0  0  0  0
   -1.5508   -1.2503   -0.4289 C   0  0  0  0  0  0  0  0  0  0  0  0
    0.8127   -0.1637   -0.6175 C   0  0  0  0  0  0  0  0  0  0  0  0
    3.0345    0.9569    0.7024 C   0  0  0  0  0  0  0  0  0  0  0  0
    3.0837   -0.2984    0.1098 C   0  0  0  0  0  0  0  0  0  0  0  0
   -2.2724   -0.1826    0.2877 N   0  0  0  0  0  0  0  0  0  0  0  0
    4.3184   -0.8507    0.2741 O   0  0  0  0  0  0  0  0  0  0  0  0
   -4.5169    2.2581   -0.4177 H   0  0  0  0  0  0  0  0  0  0  0  0
   -4.5184    1.1765    0.9840 H   0  0  0  0  0  0  0  0  0  0  0  0
   -3.1846    2.3244    0.7473 H   0  0  0  0  0  0  0  0  0  0  0  0
   -0.4044   -1.8399    1.3467 H   0  0  0  0  0  0  0  0  0  0  0  0
   -0.5149   -3.0930    0.0954 H   0  0  0  0  0  0  0  0  0  0  0  0
   -1.9091   -2.7403    1.1200 H   0  0  0  0  0  0  0  0  0  0  0  0
   -3.8554   -0.0262   -1.1041 H   0  0  0  0  0  0  0  0  0  0  0  0
   -2.5364    1.1355   -1.3483 H   0  0  0  0  0  0  0  0  0  0  0  0
   -0.1945    1.6706   -0.0741 H   0  0  0  0  0  0  0  0  0  0  0  0
    1.7476    2.6655    1.0859 H   0  0  0  0  0  0  0  0  0  0  0  0
    4.6676    2.0386    1.8031 H   0  0  0  0  0  0  0  0  0  0  0  0
    6.0786   -0.2549    1.1825 H   0  0  0  0  0  0  0  0  0  0  0  0
   -0.7525   -0.0190   -2.0572 H   0  0  0  0  0  0  0  0  0  0  0  0
   -0.0511   -1.6020   -1.9402 H   0  0  0  0  0  0  0  0  0  0  0  0
    2.1180   -1.8784   -0.9945 H   0  0  0  0  0  0  0  0  0  0  0  0
   -2.2667   -1.7725   -1.0784 H   0  0  0  0  0  0  0  0  0  0  0  0
   -2.8444   -0.5958    1.0246 H   0  0  0  0  0  0  0  0  0  0  0  0
  1  3  1  0
  2 10  1  0
  3 14  1  0
  4  5  2  0
  4 11  1  0
  5 12  1  0
  6  7  2  0
  6 12  1  0
  7 15  1  0
  8 10  1  0
  8 11  1  0
  9 11  2  0
  9 13  1  0
 10 14  1  0
 12 13  2  0
 13 15  1  0
  1 16  1  0
  1 17  1  0
  1 18  1  0
  2 19  1  0
  2 20  1  0
  2 21  1  0
  3 22  1  0
  3 23  1  0
  4 24  1  0
  5 25  1  0
  6 26  1  0
  7 27  1  0
  8 28  1  0
  8 29  1  0
  9 30  1  0
 10 31  1  0
 14 32  1  0
M  END
