
     RDKit          3D

 37 37  0  0  0  0  0  0  0  0999 V2000
    3.0891   -0.9539    0.6303 C   0  0  0  0  0  0  0  0  0  0  0  0
    1.9207    1.8381   -1.6976 C   0  0  0  0  0  0  0  0  0  0  0  0
    3.7667    0.3471   -1.8840 C   0  0  0  0  0  0  0  0  0  0  0  0
   -0.9358   -2.9364    0.9125 C   0  0  0  0  0  0  0  0  0  0  0  0
   -5.1360   -0.4450   -0.1555 C   0  0  0  0  0  0  0  0  0  0  0  0
    1.2286    0.6793    1.0017 C   0  0  0  0  0  0  0  0  0  0  0  0
   -0.9497    1.8597    0.5220 C   0  0  0  0  0  0  0  0  0  0  0  0
   -2.3608   -0.5401    0.4025 C   0  0  0  0  0  0  0  0  0  0  0  0
    2.1152   -0.0001   -0.0914 C   0  0  0  0  0  0  0  0  0  0  0  0
   -0.2633    0.6514    0.7139 C   0  0  0  0  0  0  0  0  0  0  0  0
   -2.3222    1.8662    0.2562 C   0  0  0  0  0  0  0  0  0  0  0  0
   -0.9838   -0.5562    0.6703 C   0  0  0  0  0  0  0  0  0  0  0  0
   -3.0424    0.6659    0.1891 C   0  0  0  0  0  0  0  0  0  0  0  0
   -3.2391    3.7341   -0.0342 I   0  0  0  0  0  0  0  0  0  0  0  0
    2.8481    0.9911   -0.9368 N   0  0  0  0  0  0  0  0  0  0  0  0
   -0.2520   -1.6905    0.9108 O   0  0  0  0  0  0  0  0  0  0  0  0
   -4.3833    0.7575   -0.0796 O   0  0  0  0  0  0  0  0  0  0  0  0
    2.5507   -1.6195    1.3144 H   0  0  0  0  0  0  0  0  0  0  0  0
    3.6185   -1.6050   -0.0723 H   0  0  0  0  0  0  0  0  0  0  0  0
    3.8295   -0.3976    1.2158 H   0  0  0  0  0  0  0  0  0  0  0  0
    2.4690    2.5129   -2.3658 H   0  0  0  0  0  0  0  0  0  0  0  0
    1.3495    2.4936   -1.0371 H   0  0  0  0  0  0  0  0  0  0  0  0
    1.2255    1.2485   -2.3058 H   0  0  0  0  0  0  0  0  0  0  0  0
    4.2329    1.0911   -2.5410 H   0  0  0  0  0  0  0  0  0  0  0  0
    3.2584   -0.3922   -2.5132 H   0  0  0  0  0  0  0  0  0  0  0  0
    4.5995   -0.1377   -1.3653 H   0  0  0  0  0  0  0  0  0  0  0  0
   -0.2032   -3.7186    1.1338 H   0  0  0  0  0  0  0  0  0  0  0  0
   -1.7008   -2.9665    1.6952 H   0  0  0  0  0  0  0  0  0  0  0  0
   -1.3645   -3.1519   -0.0716 H   0  0  0  0  0  0  0  0  0  0  0  0
   -5.1305   -0.9751    0.8024 H   0  0  0  0  0  0  0  0  0  0  0  0
   -6.1728   -0.1765   -0.3802 H   0  0  0  0  0  0  0  0  0  0  0  0
   -4.7757   -1.0859   -0.9668 H   0  0  0  0  0  0  0  0  0  0  0  0
    1.3677    0.1956    1.9786 H   0  0  0  0  0  0  0  0  0  0  0  0
    1.5627    1.7117    1.1708 H   0  0  0  0  0  0  0  0  0  0  0  0
   -0.4043    2.7992    0.5814 H   0  0  0  0  0  0  0  0  0  0  0  0
   -2.9055   -1.4739    0.3632 H   0  0  0  0  0  0  0  0  0  0  0  0
    1.4933   -0.6204   -0.7505 H   0  0  0  0  0  0  0  0  0  0  0  0
  1  9  1  0
  2 15  1  0
  3 15  1  0
  4 16  1  0
  5 17  1  0
  6  9  1  0
  6 10  1  0
  7 10  2  0
  7 11  1  0
  8 12  2  0
  8 13  1  0
  9 15  1  0
 10 12  1  0
 11 13  2  0
 11 14  1  0
 12 16  1  0
 13 17  1  0
  1 18  1  0
  1 19  1  0
  1 20  1  0
  2 21  1  0
  2 22  1  0
  2 23  1  0
  3 24  1  0
  3 25  1  0
  3 26  1  0
  4 27  1  0
  4 28  1  0
  4 29  1  0
  5 30  1  0
  5 31  1  0
  5 32  1  0
  6 33  1  0
  6 34  1  0
  7 35  1  0
  8 36  1  0
  9 37  1  0
M  END
