
     RDKit          3D

 35 35  0  0  0  0  0  0  0  0999 V2000
    3.6858    1.6068    1.8405 C   0  0  0  0  0  0  0  0  0  0  0  0
    1.0801   -2.0508   -1.8734 C   0  0  0  0  0  0  0  0  0  0  0  0
   -1.4864    0.6975   -1.3514 C   0  0  0  0  0  0  0  0  0  0  0  0
   -3.5324    1.3433    0.9383 C   0  0  0  0  0  0  0  0  0  0  0  0
   -3.5673   -0.8990    0.0841 C   0  0  0  0  0  0  0  0  0  0  0  0
    3.6986    0.1270   -0.1924 C   0  0  0  0  0  0  0  0  0  0  0  0
    3.0603   -0.7505   -1.0701 C   0  0  0  0  0  0  0  0  0  0  0  0
    1.6510    0.3535    1.0507 C   0  0  0  0  0  0  0  0  0  0  0  0
   -0.4773   -0.8283    0.4319 C   0  0  0  0  0  0  0  0  0  0  0  0
    2.9960    0.6956    0.8698 C   0  0  0  0  0  0  0  0  0  0  0  0
    1.7061   -1.0844   -0.9059 C   0  0  0  0  0  0  0  0  0  0  0  0
   -1.4341    0.3641    0.1478 C   0  0  0  0  0  0  0  0  0  0  0  0
    0.9879   -0.5237    0.1697 C   0  0  0  0  0  0  0  0  0  0  0  0
   -2.7608    0.1119    0.7659 N   0  0  0  0  0  0  0  0  0  0  0  0
    4.4994    2.1543    1.3530 H   0  0  0  0  0  0  0  0  0  0  0  0
    2.9887    2.3507    2.2402 H   0  0  0  0  0  0  0  0  0  0  0  0
    4.0987    1.0258    2.6708 H   0  0  0  0  0  0  0  0  0  0  0  0
    0.1992   -1.6075   -2.3462 H   0  0  0  0  0  0  0  0  0  0  0  0
    0.7965   -2.9731   -1.3568 H   0  0  0  0  0  0  0  0  0  0  0  0
    1.7737   -2.3228   -2.6764 H   0  0  0  0  0  0  0  0  0  0  0  0
   -1.8071   -0.1615   -1.9494 H   0  0  0  0  0  0  0  0  0  0  0  0
   -0.5002    1.0043   -1.7157 H   0  0  0  0  0  0  0  0  0  0  0  0
   -2.1682    1.5287   -1.5559 H   0  0  0  0  0  0  0  0  0  0  0  0
   -4.4403    1.1456    1.5196 H   0  0  0  0  0  0  0  0  0  0  0  0
   -2.9603    2.0860    1.5053 H   0  0  0  0  0  0  0  0  0  0  0  0
   -3.8326    1.7904   -0.0151 H   0  0  0  0  0  0  0  0  0  0  0  0
   -3.8879   -0.5798   -0.9134 H   0  0  0  0  0  0  0  0  0  0  0  0
   -4.4684   -1.1187    0.6685 H   0  0  0  0  0  0  0  0  0  0  0  0
   -3.0303   -1.8476   -0.0100 H   0  0  0  0  0  0  0  0  0  0  0  0
    4.7502    0.3586   -0.3438 H   0  0  0  0  0  0  0  0  0  0  0  0
    3.6356   -1.1797   -1.8880 H   0  0  0  0  0  0  0  0  0  0  0  0
    1.1059    0.7737    1.8953 H   0  0  0  0  0  0  0  0  0  0  0  0
   -0.7924   -1.7122   -0.1317 H   0  0  0  0  0  0  0  0  0  0  0  0
   -0.5601   -1.1184    1.4892 H   0  0  0  0  0  0  0  0  0  0  0  0
   -1.0079    1.2401    0.6550 H   0  0  0  0  0  0  0  0  0  0  0  0
  1 10  1  0
  2 11  1  0
  3 12  1  0
  4 14  1  0
  5 14  1  0
  6  7  2  0
  6 10  1  0
  7 11  1  0
  8 10  2  0
  8 13  1  0
  9 12  1  0
  9 13  1  0
 11 13  2  0
 12 14  1  0
  1 15  1  0
  1 16  1  0
  1 17  1  0
  2 18  1  0
  2 19  1  0
  2 20  1  0
  3 21  1  0
  3 22  1  0
  3 23  1  0
  4 24  1  0
  4 25  1  0
  4 26  1  0
  5 27  1  0
  5 28  1  0
  5 29  1  0
  6 30  1  0
  7 31  1  0
  8 32  1  0
  9 33  1  0
  9 34  1  0
 12 35  1  0
M  END
