
     RDKit          3D

 36 36  0  0  0  0  0  0  0  0999 V2000
    5.1404   -0.7582   -1.4256 C   0  0  0  0  0  0  0  0  0  0  0  0
    1.0244    1.7401    0.0453 C   0  0  0  0  0  0  0  0  0  0  0  0
   -5.9622    0.4221   -1.3008 C   0  0  0  0  0  0  0  0  0  0  0  0
    4.0356    0.0587   -0.7719 C   0  0  0  0  0  0  0  0  0  0  0  0
   -1.5729   -1.2833   -0.3594 C   0  0  0  0  0  0  0  0  0  0  0  0
   -2.3108    0.6815    0.8249 C   0  0  0  0  0  0  0  0  0  0  0  0
   -2.7951   -1.3272   -1.0341 C   0  0  0  0  0  0  0  0  0  0  0  0
   -3.5344    0.6350    0.1469 C   0  0  0  0  0  0  0  0  0  0  0  0
    3.4632   -0.6613    0.4511 C   0  0  0  0  0  0  0  0  0  0  0  0
    0.0047   -0.2190    1.3049 C   0  0  0  0  0  0  0  0  0  0  0  0
    1.1847    0.2650    0.4266 C   0  0  0  0  0  0  0  0  0  0  0  0
   -1.3187   -0.2755    0.5776 C   0  0  0  0  0  0  0  0  0  0  0  0
   -3.7817   -0.3707   -0.7868 C   0  0  0  0  0  0  0  0  0  0  0  0
    2.4574    0.1302    1.1659 N   0  0  0  0  0  0  0  0  0  0  0  0
   -4.9283   -0.5301   -1.5152 O   0  0  0  0  0  0  0  0  0  0  0  0
    4.7634   -1.7298   -1.7606 H   0  0  0  0  0  0  0  0  0  0  0  0
    5.9663   -0.9311   -0.7282 H   0  0  0  0  0  0  0  0  0  0  0  0
    5.5377   -0.2288   -2.2974 H   0  0  0  0  0  0  0  0  0  0  0  0
    0.1353    1.8929   -0.5748 H   0  0  0  0  0  0  0  0  0  0  0  0
    0.9304    2.3760    0.9329 H   0  0  0  0  0  0  0  0  0  0  0  0
    1.8827    2.0981   -0.5335 H   0  0  0  0  0  0  0  0  0  0  0  0
   -6.3216    0.3889   -0.2670 H   0  0  0  0  0  0  0  0  0  0  0  0
   -6.8004    0.1578   -1.9528 H   0  0  0  0  0  0  0  0  0  0  0  0
   -5.6335    1.4304   -1.5737 H   0  0  0  0  0  0  0  0  0  0  0  0
    4.4398    1.0343   -0.4764 H   0  0  0  0  0  0  0  0  0  0  0  0
    3.2528    0.2426   -1.5159 H   0  0  0  0  0  0  0  0  0  0  0  0
   -0.8239   -2.0428   -0.5712 H   0  0  0  0  0  0  0  0  0  0  0  0
   -2.1377    1.4769    1.5470 H   0  0  0  0  0  0  0  0  0  0  0  0
   -2.9809   -2.1151   -1.7599 H   0  0  0  0  0  0  0  0  0  0  0  0
   -4.2697    1.3998    0.3724 H   0  0  0  0  0  0  0  0  0  0  0  0
    4.2838   -0.8582    1.1517 H   0  0  0  0  0  0  0  0  0  0  0  0
    3.0528   -1.6396    0.1723 H   0  0  0  0  0  0  0  0  0  0  0  0
   -0.0879    0.4157    2.1965 H   0  0  0  0  0  0  0  0  0  0  0  0
    0.2151   -1.2295    1.6823 H   0  0  0  0  0  0  0  0  0  0  0  0
    1.2012   -0.3330   -0.4932 H   0  0  0  0  0  0  0  0  0  0  0  0
    2.2883   -0.3130    2.0688 H   0  0  0  0  0  0  0  0  0  0  0  0
  1  4  1  0
  2 11  1  0
  3 15  1  0
  4  9  1  0
  5  7  2  0
  5 12  1  0
  6  8  1  0
  6 12  2  0
  7 13  1  0
  8 13  2  0
  9 14  1  0
 10 11  1  0
 10 12  1  0
 11 14  1  0
 13 15  1  0
  1 16  1  0
  1 17  1  0
  1 18  1  0
  2 19  1  0
  2 20  1  0
  2 21  1  0
  3 22  1  0
  3 23  1  0
  3 24  1  0
  4 25  1  0
  4 26  1  0
  5 27  1  0
  6 28  1  0
  7 29  1  0
  8 30  1  0
  9 31  1  0
  9 32  1  0
 10 33  1  0
 10 34  1  0
 11 35  1  0
 14 36  1  0
M  END
