
     RDKit          3D

 37 37  0  0  0  0  0  0  0  0999 V2000
    5.3881    1.2699   -0.0649 C   0  0  0  0  0  0  0  0  0  0  0  0
   -3.0754    3.2630   -0.2811 C   0  0  0  0  0  0  0  0  0  0  0  0
    0.3574   -3.0839    0.6224 C   0  0  0  0  0  0  0  0  0  0  0  0
    4.2235    0.3079    0.0880 C   0  0  0  0  0  0  0  0  0  0  0  0
   -1.6618    2.7167   -0.1908 C   0  0  0  0  0  0  0  0  0  0  0  0
   -2.1111   -1.3844    0.4710 C   0  0  0  0  0  0  0  0  0  0  0  0
   -2.7246   -1.6583   -0.9081 C   0  0  0  0  0  0  0  0  0  0  0  0
    1.7065   -0.9975    0.3181 C   0  0  0  0  0  0  0  0  0  0  0  0
    0.6941    1.1720    0.0589 C   0  0  0  0  0  0  0  0  0  0  0  0
    0.4366   -1.5933    0.4235 C   0  0  0  0  0  0  0  0  0  0  0  0
    1.8387    0.3773    0.1367 C   0  0  0  0  0  0  0  0  0  0  0  0
   -0.7205   -0.7828    0.3625 C   0  0  0  0  0  0  0  0  0  0  0  0
   -0.5801    0.6085    0.1648 C   0  0  0  0  0  0  0  0  0  0  0  0
   -4.0615   -2.2485   -0.8050 N   0  0  0  0  0  0  0  0  0  0  0  0
    3.0164    1.0648    0.0197 O   0  0  0  0  0  0  0  0  0  0  0  0
   -1.7501    1.3217    0.0922 O   0  0  0  0  0  0  0  0  0  0  0  0
    5.3681    2.0281    0.7250 H   0  0  0  0  0  0  0  0  0  0  0  0
    6.3422    0.7374   -0.0194 H   0  0  0  0  0  0  0  0  0  0  0  0
    5.3254    1.8026   -1.0196 H   0  0  0  0  0  0  0  0  0  0  0  0
   -3.0662    4.3350   -0.4973 H   0  0  0  0  0  0  0  0  0  0  0  0
   -3.6381    2.7481   -1.0669 H   0  0  0  0  0  0  0  0  0  0  0  0
   -3.6139    3.0960    0.6577 H   0  0  0  0  0  0  0  0  0  0  0  0
    1.3370   -3.5590    0.5023 H   0  0  0  0  0  0  0  0  0  0  0  0
   -0.0012   -3.3113    1.6312 H   0  0  0  0  0  0  0  0  0  0  0  0
   -0.3096   -3.5378   -0.1170 H   0  0  0  0  0  0  0  0  0  0  0  0
    4.2583   -0.4271   -0.7244 H   0  0  0  0  0  0  0  0  0  0  0  0
    4.3019   -0.1968    1.0578 H   0  0  0  0  0  0  0  0  0  0  0  0
   -1.1295    3.2344    0.6152 H   0  0  0  0  0  0  0  0  0  0  0  0
   -1.1539    2.8815   -1.1481 H   0  0  0  0  0  0  0  0  0  0  0  0
   -2.7590   -0.7123    1.0490 H   0  0  0  0  0  0  0  0  0  0  0  0
   -2.0815   -2.3081    1.0607 H   0  0  0  0  0  0  0  0  0  0  0  0
   -2.0861   -2.3415   -1.4793 H   0  0  0  0  0  0  0  0  0  0  0  0
   -2.7966   -0.7334   -1.4910 H   0  0  0  0  0  0  0  0  0  0  0  0
    2.5828   -1.6352    0.3798 H   0  0  0  0  0  0  0  0  0  0  0  0
    0.8345    2.2382   -0.0840 H   0  0  0  0  0  0  0  0  0  0  0  0
   -4.6718   -1.6009   -0.3067 H   0  0  0  0  0  0  0  0  0  0  0  0
   -4.0189   -3.0908   -0.2332 H   0  0  0  0  0  0  0  0  0  0  0  0
  1  4  1  0
  2  5  1  0
  3 10  1  0
  4 15  1  0
  5 16  1  0
  6  7  1  0
  6 12  1  0
  7 14  1  0
  8 10  2  0
  8 11  1  0
  9 11  2  0
  9 13  1  0
 10 12  1  0
 11 15  1  0
 12 13  2  0
 13 16  1  0
  1 17  1  0
  1 18  1  0
  1 19  1  0
  2 20  1  0
  2 21  1  0
  2 22  1  0
  3 23  1  0
  3 24  1  0
  3 25  1  0
  4 26  1  0
  4 27  1  0
  5 28  1  0
  5 29  1  0
  6 30  1  0
  6 31  1  0
  7 32  1  0
  7 33  1  0
  8 34  1  0
  9 35  1  0
 14 36  1  0
 14 37  1  0
M  END
