
     RDKit          3D

 30 31  0  0  0  0  0  0  0  0999 V2000
   -2.8649    0.7195    0.7627 C   0  0  0  0  0  0  0  0  0  0  0  0
    2.2049   -2.4942    1.1938 C   0  0  0  0  0  0  0  0  0  0  0  0
   -1.7886   -0.2918   -1.3327 C   0  0  0  0  0  0  0  0  0  0  0  0
    0.4714   -0.7932   -0.2733 C   0  0  0  0  0  0  0  0  0  0  0  0
    0.0819    1.4048   -1.2455 C   0  0  0  0  0  0  0  0  0  0  0  0
    3.2625    2.7057   -0.5142 C   0  0  0  0  0  0  0  0  0  0  0  0
   -2.8040   -0.4809   -0.1808 C   0  0  0  0  0  0  0  0  0  0  0  0
   -0.3845    0.1172   -0.9402 C   0  0  0  0  0  0  0  0  0  0  0  0
    1.7736   -0.4337    0.0982 C   0  0  0  0  0  0  0  0  0  0  0  0
    1.3686    1.7346   -0.8770 C   0  0  0  0  0  0  0  0  0  0  0  0
    2.1922    0.8451   -0.2262 C   0  0  0  0  0  0  0  0  0  0  0  0
   -2.5618   -1.7080    0.5884 N   0  0  0  0  0  0  0  0  0  0  0  0
    2.6738   -1.2295    0.7462 O   0  0  0  0  0  0  0  0  0  0  0  0
    1.9660    2.9366   -1.1005 O   0  0  0  0  0  0  0  0  0  0  0  0
    3.4159    1.3868    0.0398 O   0  0  0  0  0  0  0  0  0  0  0  0
   -1.9384    0.8412    1.3342 H   0  0  0  0  0  0  0  0  0  0  0  0
   -3.6838    0.6068    1.4823 H   0  0  0  0  0  0  0  0  0  0  0  0
   -3.0440    1.6434    0.2023 H   0  0  0  0  0  0  0  0  0  0  0  0
    3.0197   -2.9781    1.7411 H   0  0  0  0  0  0  0  0  0  0  0  0
    1.3608   -2.3844    1.8829 H   0  0  0  0  0  0  0  0  0  0  0  0
    1.9445   -3.1388    0.3479 H   0  0  0  0  0  0  0  0  0  0  0  0
   -1.7256   -1.2127   -1.9283 H   0  0  0  0  0  0  0  0  0  0  0  0
   -2.1960    0.4620   -2.0204 H   0  0  0  0  0  0  0  0  0  0  0  0
    0.0857   -1.7840   -0.0518 H   0  0  0  0  0  0  0  0  0  0  0  0
   -0.5403    2.1318   -1.7562 H   0  0  0  0  0  0  0  0  0  0  0  0
    4.0267    2.8535   -1.2860 H   0  0  0  0  0  0  0  0  0  0  0  0
    3.4226    3.4420    0.2819 H   0  0  0  0  0  0  0  0  0  0  0  0
   -3.7941   -0.5897   -0.6419 H   0  0  0  0  0  0  0  0  0  0  0  0
   -3.2632   -1.7936    1.3236 H   0  0  0  0  0  0  0  0  0  0  0  0
   -2.6816   -2.5185   -0.0178 H   0  0  0  0  0  0  0  0  0  0  0  0
  1  7  1  0
  2 13  1  0
  3  7  1  0
  3  8  1  0
  4  8  2  0
  4  9  1  0
  5  8  1  0
  5 10  2  0
  6 14  1  0
  6 15  1  0
  7 12  1  0
  9 11  2  0
  9 13  1  0
 10 11  1  0
 10 14  1  0
 11 15  1  0
  1 16  1  0
  1 17  1  0
  1 18  1  0
  2 19  1  0
  2 20  1  0
  2 21  1  0
  3 22  1  0
  3 23  1  0
  4 24  1  0
  5 25  1  0
  6 26  1  0
  6 27  1  0
  7 28  1  0
 12 29  1  0
 12 30  1  0
M  END
