
     RDKit          3D

 37 37  0  0  0  0  0  0  0  0999 V2000
    2.3314   -3.1633   -0.4760 C   0  0  0  0  0  0  0  0  0  0  0  0
   -4.4080    0.4280   -0.6396 C   0  0  0  0  0  0  0  0  0  0  0  0
    4.1833    1.0320    0.1699 C   0  0  0  0  0  0  0  0  0  0  0  0
   -0.1098    3.5958   -0.0646 C   0  0  0  0  0  0  0  0  0  0  0  0
    2.0300   -2.5208    0.8698 C   0  0  0  0  0  0  0  0  0  0  0  0
   -2.2766    0.0614    0.6583 C   0  0  0  0  0  0  0  0  0  0  0  0
   -0.0670   -1.1425    0.7601 C   0  0  0  0  0  0  0  0  0  0  0  0
    1.3604    1.2076    0.3310 C   0  0  0  0  0  0  0  0  0  0  0  0
   -2.9372    0.0191   -0.7359 C   0  0  0  0  0  0  0  0  0  0  0  0
    1.3346   -1.1876    0.7154 C   0  0  0  0  0  0  0  0  0  0  0  0
   -0.7622    0.0655    0.6048 C   0  0  0  0  0  0  0  0  0  0  0  0
    2.0518   -0.0005    0.4938 C   0  0  0  0  0  0  0  0  0  0  0  0
   -0.0394    1.2487    0.3802 C   0  0  0  0  0  0  0  0  0  0  0  0
   -2.8546   -1.3238   -1.3300 N   0  0  0  0  0  0  0  0  0  0  0  0
    3.4169   -0.1300    0.4540 O   0  0  0  0  0  0  0  0  0  0  0  0
   -0.7941    2.3843    0.2242 O   0  0  0  0  0  0  0  0  0  0  0  0
    2.8228   -4.1306   -0.3312 H   0  0  0  0  0  0  0  0  0  0  0  0
    2.9934   -2.5347   -1.0807 H   0  0  0  0  0  0  0  0  0  0  0  0
    1.4132   -3.3317   -1.0490 H   0  0  0  0  0  0  0  0  0  0  0  0
   -4.8876    0.4097   -1.6246 H   0  0  0  0  0  0  0  0  0  0  0  0
   -4.5001    1.4469   -0.2478 H   0  0  0  0  0  0  0  0  0  0  0  0
   -4.9689   -0.2402    0.0235 H   0  0  0  0  0  0  0  0  0  0  0  0
    4.0644    1.7845    0.9562 H   0  0  0  0  0  0  0  0  0  0  0  0
    5.2375    0.7395    0.1476 H   0  0  0  0  0  0  0  0  0  0  0  0
    3.9318    1.4418   -0.8140 H   0  0  0  0  0  0  0  0  0  0  0  0
   -0.8608    4.3824   -0.1857 H   0  0  0  0  0  0  0  0  0  0  0  0
    0.5440    3.8863    0.7642 H   0  0  0  0  0  0  0  0  0  0  0  0
    0.4476    3.5218   -1.0042 H   0  0  0  0  0  0  0  0  0  0  0  0
    2.9550   -2.4000    1.4460 H   0  0  0  0  0  0  0  0  0  0  0  0
    1.4023   -3.1977    1.4629 H   0  0  0  0  0  0  0  0  0  0  0  0
   -2.6238   -0.7823    1.2707 H   0  0  0  0  0  0  0  0  0  0  0  0
   -2.6071    0.9539    1.2062 H   0  0  0  0  0  0  0  0  0  0  0  0
   -0.6286   -2.0639    0.9043 H   0  0  0  0  0  0  0  0  0  0  0  0
    1.9153    2.1207    0.1651 H   0  0  0  0  0  0  0  0  0  0  0  0
   -2.4305    0.7191   -1.4105 H   0  0  0  0  0  0  0  0  0  0  0  0
   -3.3858   -1.9845   -0.7653 H   0  0  0  0  0  0  0  0  0  0  0  0
   -3.2936   -1.3149   -2.2494 H   0  0  0  0  0  0  0  0  0  0  0  0
  1  5  1  0
  2  9  1  0
  3 15  1  0
  4 16  1  0
  5 10  1  0
  6  9  1  0
  6 11  1  0
  7 10  2  0
  7 11  1  0
  8 12  2  0
  8 13  1  0
  9 14  1  0
 10 12  1  0
 11 13  2  0
 12 15  1  0
 13 16  1  0
  1 17  1  0
  1 18  1  0
  1 19  1  0
  2 20  1  0
  2 21  1  0
  2 22  1  0
  3 23  1  0
  3 24  1  0
  3 25  1  0
  4 26  1  0
  4 27  1  0
  4 28  1  0
  5 29  1  0
  5 30  1  0
  6 31  1  0
  6 32  1  0
  7 33  1  0
  8 34  1  0
  9 35  1  0
 14 36  1  0
 14 37  1  0
M  END
