
     RDKit          3D

 37 37  0  0  0  0  0  0  0  0999 V2000
   -3.7529    0.7560   -0.5562 C   0  0  0  0  0  0  0  0  0  0  0  0
   -0.7922    1.3617   -2.6510 C   0  0  0  0  0  0  0  0  0  0  0  0
   -1.9453   -2.7013    1.8697 C   0  0  0  0  0  0  0  0  0  0  0  0
    1.8635    2.4790   -0.8790 C   0  0  0  0  0  0  0  0  0  0  0  0
   -2.9332   -0.2465   -1.3567 C   0  0  0  0  0  0  0  0  0  0  0  0
    2.5825   -0.6187    0.5952 C   0  0  0  0  0  0  0  0  0  0  0  0
    2.7720   -0.0380    2.0027 C   0  0  0  0  0  0  0  0  0  0  0  0
    0.1506   -1.2511    0.6574 C   0  0  0  0  0  0  0  0  0  0  0  0
   -0.4808    0.4830   -1.4647 C   0  0  0  0  0  0  0  0  0  0  0  0
    1.1648   -0.4650    0.0893 C   0  0  0  0  0  0  0  0  0  0  0  0
   -1.4942   -0.3148   -0.8734 C   0  0  0  0  0  0  0  0  0  0  0  0
   -1.1691   -1.1693    0.2040 C   0  0  0  0  0  0  0  0  0  0  0  0
    0.8277    0.4238   -0.9426 C   0  0  0  0  0  0  0  0  0  0  0  0
    4.1551   -0.1608    2.4646 N   0  0  0  0  0  0  0  0  0  0  0  0
   -2.2098   -1.8917    0.7320 O   0  0  0  0  0  0  0  0  0  0  0  0
    1.8191    1.1934   -1.5030 O   0  0  0  0  0  0  0  0  0  0  0  0
   -4.7810    0.7870   -0.9306 H   0  0  0  0  0  0  0  0  0  0  0  0
   -3.7884    0.4876    0.5049 H   0  0  0  0  0  0  0  0  0  0  0  0
   -3.3342    1.7648   -0.6320 H   0  0  0  0  0  0  0  0  0  0  0  0
   -1.5504    2.1048   -2.3853 H   0  0  0  0  0  0  0  0  0  0  0  0
    0.0800    1.9080   -3.0203 H   0  0  0  0  0  0  0  0  0  0  0  0
   -1.1501    0.7522   -3.4871 H   0  0  0  0  0  0  0  0  0  0  0  0
   -1.5728   -2.1011    2.7064 H   0  0  0  0  0  0  0  0  0  0  0  0
   -2.8903   -3.1559    2.1826 H   0  0  0  0  0  0  0  0  0  0  0  0
   -1.2530   -3.5127    1.6226 H   0  0  0  0  0  0  0  0  0  0  0  0
    0.8961    2.9908   -0.9233 H   0  0  0  0  0  0  0  0  0  0  0  0
    2.1985    2.4000    0.1591 H   0  0  0  0  0  0  0  0  0  0  0  0
    2.5923    3.0873   -1.4228 H   0  0  0  0  0  0  0  0  0  0  0  0
   -3.3986   -1.2379   -1.2963 H   0  0  0  0  0  0  0  0  0  0  0  0
   -2.9783    0.0099   -2.4199 H   0  0  0  0  0  0  0  0  0  0  0  0
    2.8349   -1.6878    0.5945 H   0  0  0  0  0  0  0  0  0  0  0  0
    3.2930   -0.1519   -0.0973 H   0  0  0  0  0  0  0  0  0  0  0  0
    2.1225   -0.5512    2.7205 H   0  0  0  0  0  0  0  0  0  0  0  0
    2.4882    1.0193    2.0244 H   0  0  0  0  0  0  0  0  0  0  0  0
    0.4221   -1.9339    1.4564 H   0  0  0  0  0  0  0  0  0  0  0  0
    4.4373   -1.1403    2.4424 H   0  0  0  0  0  0  0  0  0  0  0  0
    4.7741    0.3212    1.8129 H   0  0  0  0  0  0  0  0  0  0  0  0
  1  5  1  0
  2  9  1  0
  3 15  1  0
  4 16  1  0
  5 11  1  0
  6  7  1  0
  6 10  1  0
  7 14  1  0
  8 10  2  0
  8 12  1  0
  9 11  1  0
  9 13  2  0
 10 13  1  0
 11 12  2  0
 12 15  1  0
 13 16  1  0
  1 17  1  0
  1 18  1  0
  1 19  1  0
  2 20  1  0
  2 21  1  0
  2 22  1  0
  3 23  1  0
  3 24  1  0
  3 25  1  0
  4 26  1  0
  4 27  1  0
  4 28  1  0
  5 29  1  0
  5 30  1  0
  6 31  1  0
  6 32  1  0
  7 33  1  0
  7 34  1  0
  8 35  1  0
 14 36  1  0
 14 37  1  0
M  END
