
     RDKit          3D

 38 38  0  0  0  0  0  0  0  0999 V2000
    3.4096    1.0051    1.4951 C   0  0  0  0  0  0  0  0  0  0  0  0
   -0.4026    2.9419    1.7226 C   0  0  0  0  0  0  0  0  0  0  0  0
   -2.0289   -2.9735   -2.3875 C   0  0  0  0  0  0  0  0  0  0  0  0
    2.7429   -0.3028    1.0857 C   0  0  0  0  0  0  0  0  0  0  0  0
    1.5716    0.4724   -1.0973 C   0  0  0  0  0  0  0  0  0  0  0  0
   -0.5729   -0.8321   -1.2598 C   0  0  0  0  0  0  0  0  0  0  0  0
   -1.8510    0.8042    0.5863 C   0  0  0  0  0  0  0  0  0  0  0  0
   -3.9884   -0.5636    0.3877 C   0  0  0  0  0  0  0  0  0  0  0  0
    0.1274    0.2484   -0.6881 C   0  0  0  0  0  0  0  0  0  0  0  0
   -2.5521   -0.2761    0.0187 C   0  0  0  0  0  0  0  0  0  0  0  0
    2.5594   -0.5132   -0.4316 C   0  0  0  0  0  0  0  0  0  0  0  0
   -0.5219    1.0727    0.2438 C   0  0  0  0  0  0  0  0  0  0  0  0
   -1.9008   -1.0986   -0.9160 C   0  0  0  0  0  0  0  0  0  0  0  0
    3.8550   -0.4643   -1.1289 N   0  0  0  0  0  0  0  0  0  0  0  0
   -4.4910    0.3373    1.3715 O   0  0  0  0  0  0  0  0  0  0  0  0
    0.2201    2.1017    0.7593 O   0  0  0  0  0  0  0  0  0  0  0  0
   -2.6500   -2.1276   -1.4272 O   0  0  0  0  0  0  0  0  0  0  0  0
    2.8672    1.8769    1.1224 H   0  0  0  0  0  0  0  0  0  0  0  0
    3.4436    1.0772    2.5873 H   0  0  0  0  0  0  0  0  0  0  0  0
    4.4403    1.0600    1.1319 H   0  0  0  0  0  0  0  0  0  0  0  0
   -1.2595    3.4699    1.2916 H   0  0  0  0  0  0  0  0  0  0  0  0
    0.3298    3.6946    2.0304 H   0  0  0  0  0  0  0  0  0  0  0  0
   -0.6901    2.3756    2.6145 H   0  0  0  0  0  0  0  0  0  0  0  0
   -1.1716   -3.4994   -1.9545 H   0  0  0  0  0  0  0  0  0  0  0  0
   -1.7412   -2.4114   -3.2820 H   0  0  0  0  0  0  0  0  0  0  0  0
   -2.7618   -3.7274   -2.6908 H   0  0  0  0  0  0  0  0  0  0  0  0
    3.3454   -1.1290    1.4859 H   0  0  0  0  0  0  0  0  0  0  0  0
    1.7706   -0.3758    1.5864 H   0  0  0  0  0  0  0  0  0  0  0  0
    1.6180    0.3497   -2.1894 H   0  0  0  0  0  0  0  0  0  0  0  0
    1.8754    1.5115   -0.9265 H   0  0  0  0  0  0  0  0  0  0  0  0
   -0.0460   -1.4520   -1.9794 H   0  0  0  0  0  0  0  0  0  0  0  0
   -2.3759    1.4283    1.3032 H   0  0  0  0  0  0  0  0  0  0  0  0
   -4.6214   -0.4726   -0.5014 H   0  0  0  0  0  0  0  0  0  0  0  0
   -4.0691   -1.5768    0.7956 H   0  0  0  0  0  0  0  0  0  0  0  0
    2.1758   -1.5321   -0.5694 H   0  0  0  0  0  0  0  0  0  0  0  0
    4.5261   -1.0535   -0.6370 H   0  0  0  0  0  0  0  0  0  0  0  0
    4.2291    0.4834   -1.0879 H   0  0  0  0  0  0  0  0  0  0  0  0
   -5.4110    0.0711    1.5352 H   0  0  0  0  0  0  0  0  0  0  0  0
  1  4  1  0
  2 16  1  0
  3 17  1  0
  4 11  1  0
  5  9  1  0
  5 11  1  0
  6  9  2  0
  6 13  1  0
  7 10  1  0
  7 12  2  0
  8 10  1  0
  8 15  1  0
  9 12  1  0
 10 13  2  0
 11 14  1  0
 12 16  1  0
 13 17  1  0
  1 18  1  0
  1 19  1  0
  1 20  1  0
  2 21  1  0
  2 22  1  0
  2 23  1  0
  3 24  1  0
  3 25  1  0
  3 26  1  0
  4 27  1  0
  4 28  1  0
  5 29  1  0
  5 30  1  0
  6 31  1  0
  7 32  1  0
  8 33  1  0
  8 34  1  0
 11 35  1  0
 14 36  1  0
 14 37  1  0
 15 38  1  0
M  END
