
     RDKit          3D

 38 38  0  0  0  0  0  0  0  0999 V2000
   -3.3361   -2.5350    0.6804 C   0  0  0  0  0  0  0  0  0  0  0  0
   -2.8465    2.0317    1.4959 C   0  0  0  0  0  0  0  0  0  0  0  0
    1.8493   -2.4010   -2.0672 C   0  0  0  0  0  0  0  0  0  0  0  0
    2.5472    0.6569    2.4697 C   0  0  0  0  0  0  0  0  0  0  0  0
   -3.0091   -1.6653   -0.5244 C   0  0  0  0  0  0  0  0  0  0  0  0
   -0.5206   -1.4719   -0.8456 C   0  0  0  0  0  0  0  0  0  0  0  0
   -0.4334    0.9573    0.5005 C   0  0  0  0  0  0  0  0  0  0  0  0
    2.2012    2.3563   -0.7785 C   0  0  0  0  0  0  0  0  0  0  0  0
   -1.7100   -0.9128   -0.3412 C   0  0  0  0  0  0  0  0  0  0  0  0
    0.7604    0.4007   -0.0049 C   0  0  0  0  0  0  0  0  0  0  0  0
   -1.6623    0.3123    0.3423 C   0  0  0  0  0  0  0  0  0  0  0  0
    0.7089   -0.8230   -0.6923 C   0  0  0  0  0  0  0  0  0  0  0  0
    2.0750    1.1443    0.1856 C   0  0  0  0  0  0  0  0  0  0  0  0
    2.2749    2.0207   -2.2052 N   0  0  0  0  0  0  0  0  0  0  0  0
   -2.8586    0.7833    0.8159 O   0  0  0  0  0  0  0  0  0  0  0  0
    1.9039   -1.3132   -1.1527 O   0  0  0  0  0  0  0  0  0  0  0  0
    2.1766    1.6604    1.5306 O   0  0  0  0  0  0  0  0  0  0  0  0
   -3.4485   -1.9344    1.5892 H   0  0  0  0  0  0  0  0  0  0  0  0
   -4.2737   -3.0746    0.5135 H   0  0  0  0  0  0  0  0  0  0  0  0
   -2.5474   -3.2731    0.8616 H   0  0  0  0  0  0  0  0  0  0  0  0
   -3.8748    2.2595    1.7929 H   0  0  0  0  0  0  0  0  0  0  0  0
   -2.5050    2.8375    0.8379 H   0  0  0  0  0  0  0  0  0  0  0  0
   -2.2421    1.9789    2.4075 H   0  0  0  0  0  0  0  0  0  0  0  0
    2.8647   -2.5782   -2.4347 H   0  0  0  0  0  0  0  0  0  0  0  0
    1.2195   -2.1661   -2.9319 H   0  0  0  0  0  0  0  0  0  0  0  0
    1.5137   -3.3152   -1.5673 H   0  0  0  0  0  0  0  0  0  0  0  0
    2.6070    1.1217    3.4576 H   0  0  0  0  0  0  0  0  0  0  0  0
    3.5302    0.2449    2.2220 H   0  0  0  0  0  0  0  0  0  0  0  0
    1.8019   -0.1425    2.5099 H   0  0  0  0  0  0  0  0  0  0  0  0
   -2.9477   -2.2947   -1.4210 H   0  0  0  0  0  0  0  0  0  0  0  0
   -3.8290   -0.9631   -0.7166 H   0  0  0  0  0  0  0  0  0  0  0  0
   -0.5855   -2.4294   -1.3528 H   0  0  0  0  0  0  0  0  0  0  0  0
   -0.3628    1.9059    1.0246 H   0  0  0  0  0  0  0  0  0  0  0  0
    3.1071    2.9141   -0.5095 H   0  0  0  0  0  0  0  0  0  0  0  0
    1.3682    3.0522   -0.6221 H   0  0  0  0  0  0  0  0  0  0  0  0
    2.9378    0.4883    0.0161 H   0  0  0  0  0  0  0  0  0  0  0  0
    2.9983    1.3188   -2.3533 H   0  0  0  0  0  0  0  0  0  0  0  0
    2.5470    2.8478   -2.7326 H   0  0  0  0  0  0  0  0  0  0  0  0
  1  5  1  0
  2 15  1  0
  3 16  1  0
  4 17  1  0
  5  9  1  0
  6  9  2  0
  6 12  1  0
  7 10  1  0
  7 11  2  0
  8 13  1  0
  8 14  1  0
  9 11  1  0
 10 12  2  0
 10 13  1  0
 11 15  1  0
 12 16  1  0
 13 17  1  0
  1 18  1  0
  1 19  1  0
  1 20  1  0
  2 21  1  0
  2 22  1  0
  2 23  1  0
  3 24  1  0
  3 25  1  0
  3 26  1  0
  4 27  1  0
  4 28  1  0
  4 29  1  0
  5 30  1  0
  5 31  1  0
  6 32  1  0
  7 33  1  0
  8 34  1  0
  8 35  1  0
 13 36  1  0
 14 37  1  0
 14 38  1  0
M  END
