
     RDKit          3D

 38 38  0  0  0  0  0  0  0  0999 V2000
    3.6151   -0.6431   -1.8347 C   0  0  0  0  0  0  0  0  0  0  0  0
    3.7613    0.1100    1.0573 C   0  0  0  0  0  0  0  0  0  0  0  0
   -0.6753    1.2789    3.5168 C   0  0  0  0  0  0  0  0  0  0  0  0
   -3.1657   -0.3282   -3.0540 C   0  0  0  0  0  0  0  0  0  0  0  0
   -3.9885   -1.0730    1.4413 C   0  0  0  0  0  0  0  0  0  0  0  0
    1.5515    0.6384   -1.1188 C   0  0  0  0  0  0  0  0  0  0  0  0
   -0.0997    0.7842    0.7957 C   0  0  0  0  0  0  0  0  0  0  0  0
   -0.9207    0.1717   -1.4029 C   0  0  0  0  0  0  0  0  0  0  0  0
    2.4111   -0.6287   -0.8856 C   0  0  0  0  0  0  0  0  0  0  0  0
    0.1462    0.5324   -0.5634 C   0  0  0  0  0  0  0  0  0  0  0  0
   -1.3894    0.6800    1.3219 C   0  0  0  0  0  0  0  0  0  0  0  0
   -2.2207    0.0700   -0.9011 C   0  0  0  0  0  0  0  0  0  0  0  0
   -2.4403    0.3089    0.4662 C   0  0  0  0  0  0  0  0  0  0  0  0
    2.8058   -0.8473    0.5191 N   0  0  0  0  0  0  0  0  0  0  0  0
   -1.7231    0.9073    2.6326 O   0  0  0  0  0  0  0  0  0  0  0  0
   -3.3223   -0.2714   -1.6436 O   0  0  0  0  0  0  0  0  0  0  0  0
   -3.7255    0.2444    0.9623 O   0  0  0  0  0  0  0  0  0  0  0  0
    3.2784   -0.6759   -2.8769 H   0  0  0  0  0  0  0  0  0  0  0  0
    4.2389    0.2492   -1.7179 H   0  0  0  0  0  0  0  0  0  0  0  0
    4.2399   -1.5270   -1.6659 H   0  0  0  0  0  0  0  0  0  0  0  0
    3.3924    1.1376    1.0061 H   0  0  0  0  0  0  0  0  0  0  0  0
    3.9288   -0.1142    2.1158 H   0  0  0  0  0  0  0  0  0  0  0  0
    4.7320    0.0492    0.5567 H   0  0  0  0  0  0  0  0  0  0  0  0
   -1.1115    1.4223    4.5101 H   0  0  0  0  0  0  0  0  0  0  0  0
   -0.2200    2.2278    3.2145 H   0  0  0  0  0  0  0  0  0  0  0  0
    0.0754    0.4856    3.5958 H   0  0  0  0  0  0  0  0  0  0  0  0
   -2.7965    0.6223   -3.4534 H   0  0  0  0  0  0  0  0  0  0  0  0
   -2.5138   -1.1591   -3.3426 H   0  0  0  0  0  0  0  0  0  0  0  0
   -4.1511   -0.5125   -3.4927 H   0  0  0  0  0  0  0  0  0  0  0  0
   -3.9123   -1.8138    0.6378 H   0  0  0  0  0  0  0  0  0  0  0  0
   -3.3202   -1.3403    2.2671 H   0  0  0  0  0  0  0  0  0  0  0  0
   -5.0149   -1.0919    1.8199 H   0  0  0  0  0  0  0  0  0  0  0  0
    1.4767    0.8280   -2.1985 H   0  0  0  0  0  0  0  0  0  0  0  0
    2.0363    1.5346   -0.7133 H   0  0  0  0  0  0  0  0  0  0  0  0
    0.7431    1.0520    1.4246 H   0  0  0  0  0  0  0  0  0  0  0  0
   -0.7097   -0.0276   -2.4484 H   0  0  0  0  0  0  0  0  0  0  0  0
    1.7928   -1.4950   -1.1577 H   0  0  0  0  0  0  0  0  0  0  0  0
    3.1955   -1.7861    0.6096 H   0  0  0  0  0  0  0  0  0  0  0  0
  1  9  1  0
  2 14  1  0
  3 15  1  0
  4 16  1  0
  5 17  1  0
  6  9  1  0
  6 10  1  0
  7 10  2  0
  7 11  1  0
  8 10  1  0
  8 12  2  0
  9 14  1  0
 11 13  2  0
 11 15  1  0
 12 13  1  0
 12 16  1  0
 13 17  1  0
  1 18  1  0
  1 19  1  0
  1 20  1  0
  2 21  1  0
  2 22  1  0
  2 23  1  0
  3 24  1  0
  3 25  1  0
  3 26  1  0
  4 27  1  0
  4 28  1  0
  4 29  1  0
  5 30  1  0
  5 31  1  0
  5 32  1  0
  6 33  1  0
  6 34  1  0
  7 35  1  0
  8 36  1  0
  9 37  1  0
 14 38  1  0
M  END
