
     RDKit          3D

 38 39  0  0  0  0  0  0  0  0999 V2000
   -0.6360   -0.2386   -1.6402 C   0  0  0  0  0  0  0  0  0  0  0  0
   -3.8426   -0.0741   -1.0608 C   0  0  0  0  0  0  0  0  0  0  0  0
   -4.0856    1.2368    1.0378 C   0  0  0  0  0  0  0  0  0  0  0  0
   -2.8235   -0.9009    1.0812 C   0  0  0  0  0  0  0  0  0  0  0  0
    2.4209    1.2894    0.6322 C   0  0  0  0  0  0  0  0  0  0  0  0
    3.8014    1.2846    0.4101 C   0  0  0  0  0  0  0  0  0  0  0  0
    0.1658    0.1319    0.7657 C   0  0  0  0  0  0  0  0  0  0  0  0
    2.3044   -1.1052    0.2023 C   0  0  0  0  0  0  0  0  0  0  0  0
    5.7387   -1.5266   -0.4253 C   0  0  0  0  0  0  0  0  0  0  0  0
   -0.6365    0.6978   -0.4312 C   0  0  0  0  0  0  0  0  0  0  0  0
    1.6626    0.1000    0.5301 C   0  0  0  0  0  0  0  0  0  0  0  0
    4.3942    0.0835    0.0895 C   0  0  0  0  0  0  0  0  0  0  0  0
    3.6666   -1.0783   -0.0113 C   0  0  0  0  0  0  0  0  0  0  0  0
   -3.1163    0.3420    0.2318 C   0  0  0  0  0  0  0  0  0  0  0  0
   -1.9627    1.2107   -0.0522 N   0  0  0  0  0  0  0  0  0  0  0  0
    5.7171   -0.1088   -0.1596 O   0  0  0  0  0  0  0  0  0  0  0  0
    4.4400   -2.1486   -0.3374 O   0  0  0  0  0  0  0  0  0  0  0  0
   -1.0313   -1.2282   -1.3961 H   0  0  0  0  0  0  0  0  0  0  0  0
   -1.2245    0.1826   -2.4625 H   0  0  0  0  0  0  0  0  0  0  0  0
    0.3804   -0.3779   -2.0237 H   0  0  0  0  0  0  0  0  0  0  0  0
   -4.8064   -0.5451   -0.8324 H   0  0  0  0  0  0  0  0  0  0  0  0
   -3.2693   -0.7971   -1.6464 H   0  0  0  0  0  0  0  0  0  0  0  0
   -4.0500    0.7905   -1.7020 H   0  0  0  0  0  0  0  0  0  0  0  0
   -4.3789    2.1288    0.4707 H   0  0  0  0  0  0  0  0  0  0  0  0
   -3.6305    1.5728    1.9775 H   0  0  0  0  0  0  0  0  0  0  0  0
   -5.0053    0.6971    1.2932 H   0  0  0  0  0  0  0  0  0  0  0  0
   -3.7538   -1.4134    1.3551 H   0  0  0  0  0  0  0  0  0  0  0  0
   -2.3183   -0.6380    2.0171 H   0  0  0  0  0  0  0  0  0  0  0  0
   -2.2122   -1.6321    0.5449 H   0  0  0  0  0  0  0  0  0  0  0  0
    1.9289    2.2261    0.8891 H   0  0  0  0  0  0  0  0  0  0  0  0
    4.3866    2.1937    0.4880 H   0  0  0  0  0  0  0  0  0  0  0  0
   -0.1663   -0.8788    1.0229 H   0  0  0  0  0  0  0  0  0  0  0  0
   -0.0147    0.7445    1.6596 H   0  0  0  0  0  0  0  0  0  0  0  0
    1.7557   -2.0368    0.1148 H   0  0  0  0  0  0  0  0  0  0  0  0
    6.4076   -2.0084    0.2972 H   0  0  0  0  0  0  0  0  0  0  0  0
    6.1367   -1.6878   -1.4338 H   0  0  0  0  0  0  0  0  0  0  0  0
   -0.0975    1.5971   -0.7607 H   0  0  0  0  0  0  0  0  0  0  0  0
   -2.2453    1.9151   -0.7354 H   0  0  0  0  0  0  0  0  0  0  0  0
  1 10  1  0
  2 14  1  0
  3 14  1  0
  4 14  1  0
  5  6  2  0
  5 11  1  0
  6 12  1  0
  7 10  1  0
  7 11  1  0
  8 11  2  0
  8 13  1  0
  9 16  1  0
  9 17  1  0
 10 15  1  0
 12 13  2  0
 12 16  1  0
 13 17  1  0
 14 15  1  0
  1 18  1  0
  1 19  1  0
  1 20  1  0
  2 21  1  0
  2 22  1  0
  2 23  1  0
  3 24  1  0
  3 25  1  0
  3 26  1  0
  4 27  1  0
  4 28  1  0
  4 29  1  0
  5 30  1  0
  6 31  1  0
  7 32  1  0
  7 33  1  0
  8 34  1  0
  9 35  1  0
  9 36  1  0
 10 37  1  0
 15 38  1  0
M  END
