
     RDKit          3D

 38 39  0  0  0  0  0  0  0  0999 V2000
   -3.2943    2.5620   -0.2216 C   0  0  0  0  0  0  0  0  0  0  0  0
   -3.7060   -0.4803    0.2239 C   0  0  0  0  0  0  0  0  0  0  0  0
   -0.1651   -2.8282   -0.4733 C   0  0  0  0  0  0  0  0  0  0  0  0
   -2.4140    1.4567   -0.7901 C   0  0  0  0  0  0  0  0  0  0  0  0
    2.6681   -1.4208    1.0248 C   0  0  0  0  0  0  0  0  0  0  0  0
    3.8878   -0.9099    0.5694 C   0  0  0  0  0  0  0  0  0  0  0  0
    0.1763   -1.2180    1.4701 C   0  0  0  0  0  0  0  0  0  0  0  0
    1.5403    0.6581    0.4533 C   0  0  0  0  0  0  0  0  0  0  0  0
    4.3952    2.2903   -0.7904 C   0  0  0  0  0  0  0  0  0  0  0  0
   -2.3395    0.2038    0.1070 C   0  0  0  0  0  0  0  0  0  0  0  0
   -0.8102   -1.7362    0.3908 C   0  0  0  0  0  0  0  0  0  0  0  0
    1.4856   -0.6460    0.9701 C   0  0  0  0  0  0  0  0  0  0  0  0
    3.8977    0.3726    0.0680 C   0  0  0  0  0  0  0  0  0  0  0  0
    2.7561    1.1358    0.0118 C   0  0  0  0  0  0  0  0  0  0  0  0
   -1.3449   -0.6934   -0.4999 N   0  0  0  0  0  0  0  0  0  0  0  0
    4.9861    1.0286   -0.4162 O   0  0  0  0  0  0  0  0  0  0  0  0
    2.9822    2.3698   -0.5138 O   0  0  0  0  0  0  0  0  0  0  0  0
   -4.3476    2.2684   -0.2009 H   0  0  0  0  0  0  0  0  0  0  0  0
   -3.2158    3.4597   -0.8435 H   0  0  0  0  0  0  0  0  0  0  0  0
   -2.9858    2.8268    0.7946 H   0  0  0  0  0  0  0  0  0  0  0  0
   -4.4378    0.1800    0.6994 H   0  0  0  0  0  0  0  0  0  0  0  0
   -4.0970   -0.7631   -0.7598 H   0  0  0  0  0  0  0  0  0  0  0  0
   -3.6574   -1.3841    0.8388 H   0  0  0  0  0  0  0  0  0  0  0  0
   -0.9096   -3.2951   -1.1286 H   0  0  0  0  0  0  0  0  0  0  0  0
    0.6330   -2.4313   -1.1100 H   0  0  0  0  0  0  0  0  0  0  0  0
    0.2598   -3.6193    0.1541 H   0  0  0  0  0  0  0  0  0  0  0  0
   -2.7792    1.1903   -1.7904 H   0  0  0  0  0  0  0  0  0  0  0  0
   -1.4054    1.8687   -0.9240 H   0  0  0  0  0  0  0  0  0  0  0  0
    2.6385   -2.4330    1.4231 H   0  0  0  0  0  0  0  0  0  0  0  0
    4.7951   -1.5013    0.6080 H   0  0  0  0  0  0  0  0  0  0  0  0
   -0.3097   -0.4653    2.1032 H   0  0  0  0  0  0  0  0  0  0  0  0
    0.3984   -2.0477    2.1557 H   0  0  0  0  0  0  0  0  0  0  0  0
    0.6533    1.2784    0.3926 H   0  0  0  0  0  0  0  0  0  0  0  0
    4.5515    2.4455   -1.8643 H   0  0  0  0  0  0  0  0  0  0  0  0
    4.9048    3.0914   -0.2427 H   0  0  0  0  0  0  0  0  0  0  0  0
   -2.0114    0.5225    1.1021 H   0  0  0  0  0  0  0  0  0  0  0  0
   -1.6400   -2.2205    0.9187 H   0  0  0  0  0  0  0  0  0  0  0  0
   -1.7390   -1.1161   -1.3401 H   0  0  0  0  0  0  0  0  0  0  0  0
  1  4  1  0
  2 10  1  0
  3 11  1  0
  4 10  1  0
  5  6  2  0
  5 12  1  0
  6 13  1  0
  7 11  1  0
  7 12  1  0
  8 12  2  0
  8 14  1  0
  9 16  1  0
  9 17  1  0
 10 15  1  0
 11 15  1  0
 13 14  2  0
 13 16  1  0
 14 17  1  0
  1 18  1  0
  1 19  1  0
  1 20  1  0
  2 21  1  0
  2 22  1  0
  2 23  1  0
  3 24  1  0
  3 25  1  0
  3 26  1  0
  4 27  1  0
  4 28  1  0
  5 29  1  0
  6 30  1  0
  7 31  1  0
  7 32  1  0
  8 33  1  0
  9 34  1  0
  9 35  1  0
 10 36  1  0
 11 37  1  0
 15 38  1  0
M  END
