
     RDKit          3D

 38 39  0  0  0  0  0  0  0  0999 V2000
   -4.9117    0.1144    0.6199 C   0  0  0  0  0  0  0  0  0  0  0  0
   -0.7170    1.0451    1.3336 C   0  0  0  0  0  0  0  0  0  0  0  0
   -2.1793    0.0445   -1.9606 C   0  0  0  0  0  0  0  0  0  0  0  0
   -4.2188   -1.1084    0.0354 C   0  0  0  0  0  0  0  0  0  0  0  0
    2.4030   -0.7079    1.2571 C   0  0  0  0  0  0  0  0  0  0  0  0
    3.7475   -0.3645    1.4311 C   0  0  0  0  0  0  0  0  0  0  0  0
   -2.6879   -1.0477    0.1505 C   0  0  0  0  0  0  0  0  0  0  0  0
    0.2743   -0.8014   -0.1253 C   0  0  0  0  0  0  0  0  0  0  0  0
    2.4254    0.2004   -1.0025 C   0  0  0  0  0  0  0  0  0  0  0  0
    5.7916    1.2158   -0.9518 C   0  0  0  0  0  0  0  0  0  0  0  0
   -0.6908    0.4116   -0.0683 C   0  0  0  0  0  0  0  0  0  0  0  0
    1.7319   -0.4290    0.0444 C   0  0  0  0  0  0  0  0  0  0  0  0
    4.3927    0.2523    0.3822 C   0  0  0  0  0  0  0  0  0  0  0  0
    3.7500    0.5268   -0.8013 C   0  0  0  0  0  0  0  0  0  0  0  0
   -2.0845    0.1265   -0.5004 N   0  0  0  0  0  0  0  0  0  0  0  0
    5.6914    0.6549    0.3735 O   0  0  0  0  0  0  0  0  0  0  0  0
    4.5634    1.1368   -1.7046 O   0  0  0  0  0  0  0  0  0  0  0  0
   -4.6253    0.2648    1.6657 H   0  0  0  0  0  0  0  0  0  0  0  0
   -4.6638    1.0212    0.0599 H   0  0  0  0  0  0  0  0  0  0  0  0
   -5.9981   -0.0151    0.5817 H   0  0  0  0  0  0  0  0  0  0  0  0
   -0.9537    0.3159    2.1147 H   0  0  0  0  0  0  0  0  0  0  0  0
    0.2538    1.4892    1.5779 H   0  0  0  0  0  0  0  0  0  0  0  0
   -1.4570    1.8521    1.3843 H   0  0  0  0  0  0  0  0  0  0  0  0
   -1.6801   -0.8428   -2.3635 H   0  0  0  0  0  0  0  0  0  0  0  0
   -1.7364    0.9303   -2.4301 H   0  0  0  0  0  0  0  0  0  0  0  0
   -3.2233    0.0286   -2.2886 H   0  0  0  0  0  0  0  0  0  0  0  0
   -4.5686   -1.9977    0.5741 H   0  0  0  0  0  0  0  0  0  0  0  0
   -4.5277   -1.2423   -1.0069 H   0  0  0  0  0  0  0  0  0  0  0  0
    1.8738   -1.1935    2.0749 H   0  0  0  0  0  0  0  0  0  0  0  0
    4.2661   -0.5748    2.3595 H   0  0  0  0  0  0  0  0  0  0  0  0
   -2.2671   -1.9762   -0.2559 H   0  0  0  0  0  0  0  0  0  0  0  0
   -2.4563   -1.0464    1.2217 H   0  0  0  0  0  0  0  0  0  0  0  0
    0.1831   -1.3172   -1.0895 H   0  0  0  0  0  0  0  0  0  0  0  0
   -0.0003   -1.5433    0.6353 H   0  0  0  0  0  0  0  0  0  0  0  0
    1.9436    0.4281   -1.9475 H   0  0  0  0  0  0  0  0  0  0  0  0
    6.5741    0.6795   -1.5010 H   0  0  0  0  0  0  0  0  0  0  0  0
    6.0824    2.2692   -0.8655 H   0  0  0  0  0  0  0  0  0  0  0  0
   -0.3007    1.2000   -0.7270 H   0  0  0  0  0  0  0  0  0  0  0  0
  1  4  1  0
  2 11  1  0
  3 15  1  0
  4  7  1  0
  5  6  2  0
  5 12  1  0
  6 13  1  0
  7 15  1  0
  8 11  1  0
  8 12  1  0
  9 12  2  0
  9 14  1  0
 10 16  1  0
 10 17  1  0
 11 15  1  0
 13 14  2  0
 13 16  1  0
 14 17  1  0
  1 18  1  0
  1 19  1  0
  1 20  1  0
  2 21  1  0
  2 22  1  0
  2 23  1  0
  3 24  1  0
  3 25  1  0
  3 26  1  0
  4 27  1  0
  4 28  1  0
  5 29  1  0
  6 30  1  0
  7 31  1  0
  7 32  1  0
  8 33  1  0
  8 34  1  0
  9 35  1  0
 10 36  1  0
 10 37  1  0
 11 38  1  0
M  END
