
     RDKit          3D

 38 39  0  0  0  0  0  0  0  0999 V2000
    4.7991   -0.8905   -0.3316 C   0  0  0  0  0  0  0  0  0  0  0  0
   -3.3004    1.3156   -1.4697 C   0  0  0  0  0  0  0  0  0  0  0  0
   -4.2080   -1.4986    0.9063 C   0  0  0  0  0  0  0  0  0  0  0  0
    1.3614    2.9701    1.4005 C   0  0  0  0  0  0  0  0  0  0  0  0
    2.4297   -1.0123    0.5216 C   0  0  0  0  0  0  0  0  0  0  0  0
    0.0132   -1.4380   -0.0443 C   0  0  0  0  0  0  0  0  0  0  0  0
   -0.6811    1.2413    0.5072 C   0  0  0  0  0  0  0  0  0  0  0  0
    3.3360   -0.5911   -0.6544 C   0  0  0  0  0  0  0  0  0  0  0  0
   -3.0793    0.5167   -0.1890 C   0  0  0  0  0  0  0  0  0  0  0  0
   -3.5088   -0.9609   -0.3421 C   0  0  0  0  0  0  0  0  0  0  0  0
    0.9979   -0.5296    0.3827 C   0  0  0  0  0  0  0  0  0  0  0  0
   -1.6313    0.3217    0.0886 C   0  0  0  0  0  0  0  0  0  0  0  0
    0.6458    0.8165    0.6601 C   0  0  0  0  0  0  0  0  0  0  0  0
   -1.2831   -0.9900   -0.1746 C   0  0  0  0  0  0  0  0  0  0  0  0
    2.9795   -1.2991   -1.8925 N   0  0  0  0  0  0  0  0  0  0  0  0
    1.6777    1.6257    1.0640 O   0  0  0  0  0  0  0  0  0  0  0  0
   -2.3290   -1.7735   -0.5823 O   0  0  0  0  0  0  0  0  0  0  0  0
    5.4556   -0.5805   -1.1523 H   0  0  0  0  0  0  0  0  0  0  0  0
    4.9612   -1.9596   -0.1533 H   0  0  0  0  0  0  0  0  0  0  0  0
    5.1152   -0.3476    0.5658 H   0  0  0  0  0  0  0  0  0  0  0  0
   -2.8006    0.8558   -2.3302 H   0  0  0  0  0  0  0  0  0  0  0  0
   -4.3692    1.3850   -1.6979 H   0  0  0  0  0  0  0  0  0  0  0  0
   -2.9113    2.3346   -1.3678 H   0  0  0  0  0  0  0  0  0  0  0  0
   -4.4592   -2.5565    0.7737 H   0  0  0  0  0  0  0  0  0  0  0  0
   -5.1285   -0.9437    1.1113 H   0  0  0  0  0  0  0  0  0  0  0  0
   -3.5586   -1.4381    1.7865 H   0  0  0  0  0  0  0  0  0  0  0  0
    2.2853    3.4593    1.7237 H   0  0  0  0  0  0  0  0  0  0  0  0
    0.6530    3.0137    2.2344 H   0  0  0  0  0  0  0  0  0  0  0  0
    0.9841    3.5158    0.5295 H   0  0  0  0  0  0  0  0  0  0  0  0
    2.8346   -0.6265    1.4667 H   0  0  0  0  0  0  0  0  0  0  0  0
    2.4428   -2.1053    0.6336 H   0  0  0  0  0  0  0  0  0  0  0  0
    0.2585   -2.4713   -0.2695 H   0  0  0  0  0  0  0  0  0  0  0  0
   -0.9889    2.2623    0.6970 H   0  0  0  0  0  0  0  0  0  0  0  0
    3.2376    0.4854   -0.8369 H   0  0  0  0  0  0  0  0  0  0  0  0
   -3.5929    1.0035    0.6473 H   0  0  0  0  0  0  0  0  0  0  0  0
   -4.1837   -1.0920   -1.1966 H   0  0  0  0  0  0  0  0  0  0  0  0
    2.0080   -1.0855   -2.1231 H   0  0  0  0  0  0  0  0  0  0  0  0
    3.5376   -0.9329   -2.6623 H   0  0  0  0  0  0  0  0  0  0  0  0
  1  8  1  0
  2  9  1  0
  3 10  1  0
  4 16  1  0
  5  8  1  0
  5 11  1  0
  6 11  2  0
  6 14  1  0
  7 12  1  0
  7 13  2  0
  8 15  1  0
  9 10  1  0
  9 12  1  0
 10 17  1  0
 11 13  1  0
 12 14  2  0
 13 16  1  0
 14 17  1  0
  1 18  1  0
  1 19  1  0
  1 20  1  0
  2 21  1  0
  2 22  1  0
  2 23  1  0
  3 24  1  0
  3 25  1  0
  3 26  1  0
  4 27  1  0
  4 28  1  0
  4 29  1  0
  5 30  1  0
  5 31  1  0
  6 32  1  0
  7 33  1  0
  8 34  1  0
  9 35  1  0
 10 36  1  0
 15 37  1  0
 15 38  1  0
M  END
