
     RDKit          3D

 40 40  0  0  0  0  0  0  0  0999 V2000
    3.7811   -2.5302    0.2463 C   0  0  0  0  0  0  0  0  0  0  0  0
   -3.6978    2.9054    0.4091 C   0  0  0  0  0  0  0  0  0  0  0  0
    2.9589    2.3816    0.7880 C   0  0  0  0  0  0  0  0  0  0  0  0
   -2.4838   -1.5067    1.1134 C   0  0  0  0  0  0  0  0  0  0  0  0
    3.8535   -1.3935   -0.7584 C   0  0  0  0  0  0  0  0  0  0  0  0
   -2.1865    2.7683    0.4550 C   0  0  0  0  0  0  0  0  0  0  0  0
    0.5260    1.9585    0.3025 C   0  0  0  0  0  0  0  0  0  0  0  0
   -1.3444   -1.0520   -1.1317 C   0  0  0  0  0  0  0  0  0  0  0  0
    1.0837   -0.5962   -0.6481 C   0  0  0  0  0  0  0  0  0  0  0  0
    1.8525    1.4928    0.2870 C   0  0  0  0  0  0  0  0  0  0  0  0
   -1.7747   -2.1142   -0.0971 C   0  0  0  0  0  0  0  0  0  0  0  0
   -0.2462   -0.1311   -0.6373 C   0  0  0  0  0  0  0  0  0  0  0  0
    2.1336    0.2045   -0.1950 C   0  0  0  0  0  0  0  0  0  0  0  0
   -0.5244    1.1565   -0.1510 C   0  0  0  0  0  0  0  0  0  0  0  0
   -2.6823   -3.0941   -0.7146 N   0  0  0  0  0  0  0  0  0  0  0  0
    3.4516   -0.1628   -0.1606 O   0  0  0  0  0  0  0  0  0  0  0  0
   -1.8419    1.5296   -0.1613 O   0  0  0  0  0  0  0  0  0  0  0  0
    4.3777   -2.2945    1.1339 H   0  0  0  0  0  0  0  0  0  0  0  0
    2.7562   -2.6978    0.5902 H   0  0  0  0  0  0  0  0  0  0  0  0
    4.1570   -3.4585   -0.1931 H   0  0  0  0  0  0  0  0  0  0  0  0
   -4.1762    2.0713    0.9333 H   0  0  0  0  0  0  0  0  0  0  0  0
   -4.0186    3.8436    0.8703 H   0  0  0  0  0  0  0  0  0  0  0  0
   -4.0561    2.8789   -0.6254 H   0  0  0  0  0  0  0  0  0  0  0  0
    2.5767    3.3513    1.1237 H   0  0  0  0  0  0  0  0  0  0  0  0
    3.6842    2.5704   -0.0101 H   0  0  0  0  0  0  0  0  0  0  0  0
    3.4655    1.9132    1.6381 H   0  0  0  0  0  0  0  0  0  0  0  0
   -1.8107   -0.8566    1.6812 H   0  0  0  0  0  0  0  0  0  0  0  0
   -3.3567   -0.9157    0.8144 H   0  0  0  0  0  0  0  0  0  0  0  0
   -2.8266   -2.2898    1.7995 H   0  0  0  0  0  0  0  0  0  0  0  0
    3.3066   -1.6126   -1.6820 H   0  0  0  0  0  0  0  0  0  0  0  0
    4.9004   -1.2640   -1.0561 H   0  0  0  0  0  0  0  0  0  0  0  0
   -1.8591    2.7806    1.5010 H   0  0  0  0  0  0  0  0  0  0  0  0
   -1.7345    3.6024   -0.0935 H   0  0  0  0  0  0  0  0  0  0  0  0
    0.3409    2.9605    0.6761 H   0  0  0  0  0  0  0  0  0  0  0  0
   -0.9709   -1.5525   -2.0365 H   0  0  0  0  0  0  0  0  0  0  0  0
   -2.2137   -0.4750   -1.4716 H   0  0  0  0  0  0  0  0  0  0  0  0
    1.2644   -1.6026   -1.0112 H   0  0  0  0  0  0  0  0  0  0  0  0
   -0.8934   -2.6613    0.2582 H   0  0  0  0  0  0  0  0  0  0  0  0
   -3.5259   -2.6188   -1.0355 H   0  0  0  0  0  0  0  0  0  0  0  0
   -2.2462   -3.4887   -1.5467 H   0  0  0  0  0  0  0  0  0  0  0  0
  1  5  1  0
  2  6  1  0
  3 10  1  0
  4 11  1  0
  5 16  1  0
  6 17  1  0
  7 10  2  0
  7 14  1  0
  8 11  1  0
  8 12  1  0
  9 12  1  0
  9 13  2  0
 10 13  1  0
 11 15  1  0
 12 14  2  0
 13 16  1  0
 14 17  1  0
  1 18  1  0
  1 19  1  0
  1 20  1  0
  2 21  1  0
  2 22  1  0
  2 23  1  0
  3 24  1  0
  3 25  1  0
  3 26  1  0
  4 27  1  0
  4 28  1  0
  4 29  1  0
  5 30  1  0
  5 31  1  0
  6 32  1  0
  6 33  1  0
  7 34  1  0
  8 35  1  0
  8 36  1  0
  9 37  1  0
 11 38  1  0
 15 39  1  0
 15 40  1  0
M  END
