
     RDKit          3D

 38 38  0  0  0  0  0  0  0  0999 V2000
   -4.1133    1.0645   -0.6651 C   0  0  0  0  0  0  0  0  0  0  0  0
   -3.7203   -0.9425    0.7790 C   0  0  0  0  0  0  0  0  0  0  0  0
   -0.1528   -3.6706    0.0593 C   0  0  0  0  0  0  0  0  0  0  0  0
   -0.2024    3.4657   -0.8661 C   0  0  0  0  0  0  0  0  0  0  0  0
    3.2711    0.1095    1.0101 C   0  0  0  0  0  0  0  0  0  0  0  0
    4.2827    0.4694   -0.0891 C   0  0  0  0  0  0  0  0  0  0  0  0
    1.1908   -1.2047    0.4211 C   0  0  0  0  0  0  0  0  0  0  0  0
    1.1537    1.2067    0.1656 C   0  0  0  0  0  0  0  0  0  0  0  0
   -3.0695    0.2637    0.1075 C   0  0  0  0  0  0  0  0  0  0  0  0
    1.8399    0.0358    0.5257 C   0  0  0  0  0  0  0  0  0  0  0  0
   -0.1294   -1.2840   -0.0299 C   0  0  0  0  0  0  0  0  0  0  0  0
   -0.1647    1.1500   -0.2941 C   0  0  0  0  0  0  0  0  0  0  0  0
   -0.8084   -0.0987   -0.3603 C   0  0  0  0  0  0  0  0  0  0  0  0
    4.3643   -0.5265   -1.1572 N   0  0  0  0  0  0  0  0  0  0  0  0
   -0.8395   -2.4489   -0.1688 O   0  0  0  0  0  0  0  0  0  0  0  0
   -0.8985    2.2405   -0.6842 O   0  0  0  0  0  0  0  0  0  0  0  0
   -2.0959   -0.1995   -0.8418 O   0  0  0  0  0  0  0  0  0  0  0  0
   -4.9003    1.4360   -0.0017 H   0  0  0  0  0  0  0  0  0  0  0  0
   -4.5745    0.4550   -1.4502 H   0  0  0  0  0  0  0  0  0  0  0  0
   -3.6483    1.9203   -1.1654 H   0  0  0  0  0  0  0  0  0  0  0  0
   -2.9848   -1.4991    1.3688 H   0  0  0  0  0  0  0  0  0  0  0  0
   -4.1215   -1.6389    0.0344 H   0  0  0  0  0  0  0  0  0  0  0  0
   -4.5306   -0.6355    1.4475 H   0  0  0  0  0  0  0  0  0  0  0  0
    0.1595   -3.7566    1.1051 H   0  0  0  0  0  0  0  0  0  0  0  0
   -0.8490   -4.4892   -0.1472 H   0  0  0  0  0  0  0  0  0  0  0  0
    0.6996   -3.7800   -0.6193 H   0  0  0  0  0  0  0  0  0  0  0  0
    0.1429    3.8650    0.0929 H   0  0  0  0  0  0  0  0  0  0  0  0
    0.6283    3.3529   -1.5708 H   0  0  0  0  0  0  0  0  0  0  0  0
   -0.9045    4.1885   -1.2927 H   0  0  0  0  0  0  0  0  0  0  0  0
    3.3260    0.8604    1.8088 H   0  0  0  0  0  0  0  0  0  0  0  0
    3.5592   -0.8412    1.4770 H   0  0  0  0  0  0  0  0  0  0  0  0
    5.2756    0.5682    0.3634 H   0  0  0  0  0  0  0  0  0  0  0  0
    4.0393    1.4408   -0.5336 H   0  0  0  0  0  0  0  0  0  0  0  0
    1.7388   -2.0992    0.6994 H   0  0  0  0  0  0  0  0  0  0  0  0
    1.6730    2.1558    0.2544 H   0  0  0  0  0  0  0  0  0  0  0  0
   -2.6323    0.9098    0.8801 H   0  0  0  0  0  0  0  0  0  0  0  0
    4.5410   -1.4470   -0.7578 H   0  0  0  0  0  0  0  0  0  0  0  0
    3.4548   -0.5963   -1.6177 H   0  0  0  0  0  0  0  0  0  0  0  0
  1  9  1  0
  2  9  1  0
  3 15  1  0
  4 16  1  0
  5  6  1  0
  5 10  1  0
  6 14  1  0
  7 10  2  0
  7 11  1  0
  8 10  1  0
  8 12  2  0
  9 17  1  0
 11 13  2  0
 11 15  1  0
 12 13  1  0
 12 16  1  0
 13 17  1  0
  1 18  1  0
  1 19  1  0
  1 20  1  0
  2 21  1  0
  2 22  1  0
  2 23  1  0
  3 24  1  0
  3 25  1  0
  3 26  1  0
  4 27  1  0
  4 28  1  0
  4 29  1  0
  5 30  1  0
  5 31  1  0
  6 32  1  0
  6 33  1  0
  7 34  1  0
  8 35  1  0
  9 36  1  0
 14 37  1  0
 14 38  1  0
M  END
