
     RDKit          3D

 39 41  0  0  0  0  0  0  0  0999 V2000
   -2.0257   -1.0573    2.0952 C   0  0  0  0  0  0  0  0  0  0  0  0
    2.3810   -2.9951    0.4770 C   0  0  0  0  0  0  0  0  0  0  0  0
   -0.3765    3.8260   -1.1694 C   0  0  0  0  0  0  0  0  0  0  0  0
    0.9741   -2.4330    0.3510 C   0  0  0  0  0  0  0  0  0  0  0  0
    1.0303    3.2602   -1.0637 C   0  0  0  0  0  0  0  0  0  0  0  0
   -1.2385    2.8315   -1.9137 C   0  0  0  0  0  0  0  0  0  0  0  0
    3.2326   -1.9955    1.2245 C   0  0  0  0  0  0  0  0  0  0  0  0
   -1.5702   -1.0170   -0.4208 C   0  0  0  0  0  0  0  0  0  0  0  0
   -2.5271   -0.6056    0.7238 C   0  0  0  0  0  0  0  0  0  0  0  0
    0.9673   -0.9634    0.0004 C   0  0  0  0  0  0  0  0  0  0  0  0
    1.0248    1.7987   -0.6897 C   0  0  0  0  0  0  0  0  0  0  0  0
   -0.2233   -0.3056   -0.3917 C   0  0  0  0  0  0  0  0  0  0  0  0
    2.1954    1.1359   -0.2830 C   0  0  0  0  0  0  0  0  0  0  0  0
   -0.1673    1.0584   -0.7638 C   0  0  0  0  0  0  0  0  0  0  0  0
    2.1639   -0.2243    0.0776 C   0  0  0  0  0  0  0  0  0  0  0  0
    3.8635    2.0735   -0.2134 Br  0  0  0  0  0  0  0  0  0  0  0  0
   -3.8609   -1.1911    0.5129 N   0  0  0  0  0  0  0  0  0  0  0  0
   -1.3560    1.6142   -1.1786 O   0  0  0  0  0  0  0  0  0  0  0  0
    3.3539   -0.7894    0.4747 O   0  0  0  0  0  0  0  0  0  0  0  0
   -1.0705   -0.5834    2.3428 H   0  0  0  0  0  0  0  0  0  0  0  0
   -1.8889   -2.1436    2.1366 H   0  0  0  0  0  0  0  0  0  0  0  0
   -2.7368   -0.7793    2.8818 H   0  0  0  0  0  0  0  0  0  0  0  0
    2.3607   -3.9624    0.9894 H   0  0  0  0  0  0  0  0  0  0  0  0
    2.7986   -3.1541   -0.5253 H   0  0  0  0  0  0  0  0  0  0  0  0
   -0.3603    4.7954   -1.6780 H   0  0  0  0  0  0  0  0  0  0  0  0
   -0.7827    3.9808   -0.1617 H   0  0  0  0  0  0  0  0  0  0  0  0
    0.4552   -3.0151   -0.4180 H   0  0  0  0  0  0  0  0  0  0  0  0
    0.4466   -2.5670    1.3022 H   0  0  0  0  0  0  0  0  0  0  0  0
    1.5727    3.8525   -0.3186 H   0  0  0  0  0  0  0  0  0  0  0  0
    1.5392    3.3703   -2.0294 H   0  0  0  0  0  0  0  0  0  0  0  0
   -0.8495    2.6170   -2.9169 H   0  0  0  0  0  0  0  0  0  0  0  0
   -2.2488    3.2357   -2.0354 H   0  0  0  0  0  0  0  0  0  0  0  0
    2.8321   -1.7722    2.2213 H   0  0  0  0  0  0  0  0  0  0  0  0
    4.2421   -2.3972    1.3608 H   0  0  0  0  0  0  0  0  0  0  0  0
   -2.0393   -0.8043   -1.3919 H   0  0  0  0  0  0  0  0  0  0  0  0
   -1.4492   -2.1047   -0.4154 H   0  0  0  0  0  0  0  0  0  0  0  0
   -2.6480    0.4827    0.7484 H   0  0  0  0  0  0  0  0  0  0  0  0
   -3.7866   -2.2047    0.4403 H   0  0  0  0  0  0  0  0  0  0  0  0
   -4.2280   -0.8674   -0.3819 H   0  0  0  0  0  0  0  0  0  0  0  0
  1  9  1  0
  2  4  1  0
  2  7  1  0
  3  5  1  0
  3  6  1  0
  4 10  1  0
  5 11  1  0
  6 18  1  0
  7 19  1  0
  8  9  1  0
  8 12  1  0
  9 17  1  0
 10 12  1  0
 10 15  2  0
 11 13  2  0
 11 14  1  0
 12 14  2  0
 13 15  1  0
 13 16  1  0
 14 18  1  0
 15 19  1  0
  1 20  1  0
  1 21  1  0
  1 22  1  0
  2 23  1  0
  2 24  1  0
  3 25  1  0
  3 26  1  0
  4 27  1  0
  4 28  1  0
  5 29  1  0
  5 30  1  0
  6 31  1  0
  6 32  1  0
  7 33  1  0
  7 34  1  0
  8 35  1  0
  8 36  1  0
  9 37  1  0
 17 38  1  0
 17 39  1  0
M  END
