
     RDKit          3D

 41 42  0  0  0  0  0  0  0  0999 V2000
    3.3724   -1.4401    1.6147 C   0  0  0  0  0  0  0  0  0  0  0  0
   -4.2928   -1.6616    0.2942 C   0  0  0  0  0  0  0  0  0  0  0  0
   -3.1205    1.4649    1.0498 C   0  0  0  0  0  0  0  0  0  0  0  0
   -3.3871    0.6541   -1.3142 C   0  0  0  0  0  0  0  0  0  0  0  0
    1.7529    3.1752   -0.8827 C   0  0  0  0  0  0  0  0  0  0  0  0
    2.8546   -0.8965   -0.8293 C   0  0  0  0  0  0  0  0  0  0  0  0
    0.4401   -1.4467   -0.3774 C   0  0  0  0  0  0  0  0  0  0  0  0
   -0.2816    1.2821   -0.3882 C   0  0  0  0  0  0  0  0  0  0  0  0
    3.7899   -0.6480    0.3735 C   0  0  0  0  0  0  0  0  0  0  0  0
   -2.9399   -1.0370    0.6053 C   0  0  0  0  0  0  0  0  0  0  0  0
    1.4190   -0.4621   -0.6008 C   0  0  0  0  0  0  0  0  0  0  0  0
   -1.2266    0.2913   -0.1609 C   0  0  0  0  0  0  0  0  0  0  0  0
    1.0524    0.9083   -0.6052 C   0  0  0  0  0  0  0  0  0  0  0  0
   -0.8582   -1.0443   -0.1513 C   0  0  0  0  0  0  0  0  0  0  0  0
   -2.7076    0.3934    0.0381 C   0  0  0  0  0  0  0  0  0  0  0  0
    5.1670   -1.0230    0.0121 N   0  0  0  0  0  0  0  0  0  0  0  0
    2.0743    1.7917   -0.8405 O   0  0  0  0  0  0  0  0  0  0  0  0
   -1.8993   -1.9055    0.0803 O   0  0  0  0  0  0  0  0  0  0  0  0
    2.3927   -1.1159    1.9800 H   0  0  0  0  0  0  0  0  0  0  0  0
    3.3197   -2.5147    1.4067 H   0  0  0  0  0  0  0  0  0  0  0  0
    4.0851   -1.2900    2.4338 H   0  0  0  0  0  0  0  0  0  0  0  0
   -4.3750   -2.6383    0.7840 H   0  0  0  0  0  0  0  0  0  0  0  0
   -5.1145   -1.0302    0.6441 H   0  0  0  0  0  0  0  0  0  0  0  0
   -4.4130   -1.8500   -0.7776 H   0  0  0  0  0  0  0  0  0  0  0  0
   -2.8934    2.4718    0.6815 H   0  0  0  0  0  0  0  0  0  0  0  0
   -2.5935    1.3437    2.0034 H   0  0  0  0  0  0  0  0  0  0  0  0
   -4.1960    1.4184    1.2526 H   0  0  0  0  0  0  0  0  0  0  0  0
   -3.0710    1.6158   -1.7360 H   0  0  0  0  0  0  0  0  0  0  0  0
   -4.4774    0.6855   -1.2128 H   0  0  0  0  0  0  0  0  0  0  0  0
   -3.1390   -0.1177   -2.0525 H   0  0  0  0  0  0  0  0  0  0  0  0
    2.6764    3.7266   -1.0840 H   0  0  0  0  0  0  0  0  0  0  0  0
    1.3639    3.5196    0.0811 H   0  0  0  0  0  0  0  0  0  0  0  0
    1.0518    3.3934   -1.6949 H   0  0  0  0  0  0  0  0  0  0  0  0
    2.8734   -1.9618   -1.0982 H   0  0  0  0  0  0  0  0  0  0  0  0
    3.2355   -0.3715   -1.7160 H   0  0  0  0  0  0  0  0  0  0  0  0
    0.6882   -2.5029   -0.3714 H   0  0  0  0  0  0  0  0  0  0  0  0
   -0.5992    2.3174   -0.4052 H   0  0  0  0  0  0  0  0  0  0  0  0
    3.7936    0.4177    0.6279 H   0  0  0  0  0  0  0  0  0  0  0  0
   -2.8123   -1.0371    1.6984 H   0  0  0  0  0  0  0  0  0  0  0  0
    5.2127   -2.0251   -0.1688 H   0  0  0  0  0  0  0  0  0  0  0  0
    5.7821   -0.8508    0.8064 H   0  0  0  0  0  0  0  0  0  0  0  0
  1  9  1  0
  2 10  1  0
  3 15  1  0
  4 15  1  0
  5 17  1  0
  6  9  1  0
  6 11  1  0
  7 11  2  0
  7 14  1  0
  8 12  1  0
  8 13  2  0
  9 16  1  0
 10 15  1  0
 10 18  1  0
 11 13  1  0
 12 14  2  0
 12 15  1  0
 13 17  1  0
 14 18  1  0
  1 19  1  0
  1 20  1  0
  1 21  1  0
  2 22  1  0
  2 23  1  0
  2 24  1  0
  3 25  1  0
  3 26  1  0
  3 27  1  0
  4 28  1  0
  4 29  1  0
  4 30  1  0
  5 31  1  0
  5 32  1  0
  5 33  1  0
  6 34  1  0
  6 35  1  0
  7 36  1  0
  8 37  1  0
  9 38  1  0
 10 39  1  0
 16 40  1  0
 16 41  1  0
M  END
