
     RDKit          3D

 44 45  0  0  0  0  0  0  0  0999 V2000
   -6.5598    1.2856    0.2791 C   0  0  0  0  0  0  0  0  0  0  0  0
    1.0716   -2.1765    0.2288 C   0  0  0  0  0  0  0  0  0  0  0  0
   -5.6436    0.2701    0.9525 C   0  0  0  0  0  0  0  0  0  0  0  0
   -4.5489   -0.2808    0.0328 C   0  0  0  0  0  0  0  0  0  0  0  0
   -3.5144    0.7753   -0.3901 C   0  0  0  0  0  0  0  0  0  0  0  0
   -2.4125    0.2181   -1.3004 C   0  0  0  0  0  0  0  0  0  0  0  0
    3.8098    0.3708   -1.3111 C   0  0  0  0  0  0  0  0  0  0  0  0
    5.1845    0.4763   -1.0652 C   0  0  0  0  0  0  0  0  0  0  0  0
   -1.4983   -0.8013   -0.5983 C   0  0  0  0  0  0  0  0  0  0  0  0
    1.3923    0.2660   -0.5389 C   0  0  0  0  0  0  0  0  0  0  0  0
    3.3349    0.5087    1.0710 C   0  0  0  0  0  0  0  0  0  0  0  0
    6.6877    0.8276    2.0909 C   0  0  0  0  0  0  0  0  0  0  0  0
    0.9410   -1.1705   -0.9268 C   0  0  0  0  0  0  0  0  0  0  0  0
    2.8759    0.3844   -0.2504 C   0  0  0  0  0  0  0  0  0  0  0  0
    5.5952    0.5985    0.2433 C   0  0  0  0  0  0  0  0  0  0  0  0
    4.6955    0.6142    1.2816 C   0  0  0  0  0  0  0  0  0  0  0  0
   -0.4188   -1.1752   -1.5170 N   0  0  0  0  0  0  0  0  0  0  0  0
    6.8832    0.7179    0.6674 O   0  0  0  0  0  0  0  0  0  0  0  0
    5.3032    0.7461    2.4916 O   0  0  0  0  0  0  0  0  0  0  0  0
   -6.0238    2.2058    0.0096 H   0  0  0  0  0  0  0  0  0  0  0  0
   -7.0040    0.8679   -0.6323 H   0  0  0  0  0  0  0  0  0  0  0  0
   -7.3768    1.5597    0.9562 H   0  0  0  0  0  0  0  0  0  0  0  0
    0.7105   -3.1694   -0.0748 H   0  0  0  0  0  0  0  0  0  0  0  0
    2.1197   -2.2924    0.5262 H   0  0  0  0  0  0  0  0  0  0  0  0
    0.5074   -1.8700    1.1159 H   0  0  0  0  0  0  0  0  0  0  0  0
   -5.1871    0.7225    1.8428 H   0  0  0  0  0  0  0  0  0  0  0  0
   -6.2584   -0.5735    1.3048 H   0  0  0  0  0  0  0  0  0  0  0  0
   -5.0128   -0.7263   -0.8598 H   0  0  0  0  0  0  0  0  0  0  0  0
   -4.0445   -1.0968    0.5725 H   0  0  0  0  0  0  0  0  0  0  0  0
   -3.0545    1.2249    0.5018 H   0  0  0  0  0  0  0  0  0  0  0  0
   -4.0192    1.5859   -0.9377 H   0  0  0  0  0  0  0  0  0  0  0  0
   -2.8719   -0.2355   -2.1877 H   0  0  0  0  0  0  0  0  0  0  0  0
   -1.7993    1.0669   -1.6462 H   0  0  0  0  0  0  0  0  0  0  0  0
    3.4589    0.2793   -2.3389 H   0  0  0  0  0  0  0  0  0  0  0  0
    5.9040    0.4677   -1.8747 H   0  0  0  0  0  0  0  0  0  0  0  0
   -2.0589   -1.7060   -0.3239 H   0  0  0  0  0  0  0  0  0  0  0  0
   -1.1280   -0.3639    0.3363 H   0  0  0  0  0  0  0  0  0  0  0  0
    0.8315    0.6296    0.3315 H   0  0  0  0  0  0  0  0  0  0  0  0
    1.1527    0.9635   -1.3581 H   0  0  0  0  0  0  0  0  0  0  0  0
    2.6500    0.5245    1.9122 H   0  0  0  0  0  0  0  0  0  0  0  0
    7.2422    0.0227    2.5841 H   0  0  0  0  0  0  0  0  0  0  0  0
    7.0938    1.7885    2.4238 H   0  0  0  0  0  0  0  0  0  0  0  0
    1.6031   -1.5219   -1.7288 H   0  0  0  0  0  0  0  0  0  0  0  0
   -0.6128   -2.1132   -1.8959 H   0  0  0  0  0  0  0  0  0  0  0  0
  1  3  1  0
  2 13  1  0
  3  4  1  0
  4  5  1  0
  5  6  1  0
  6  9  1  0
  7  8  2  0
  7 14  1  0
  8 15  1  0
  9 17  1  0
 10 13  1  0
 10 14  1  0
 11 14  2  0
 11 16  1  0
 12 18  1  0
 12 19  1  0
 13 17  1  0
 15 16  2  0
 15 18  1  0
 16 19  1  0
  1 20  1  0
  1 21  1  0
  1 22  1  0
  2 23  1  0
  2 24  1  0
  2 25  1  0
  3 26  1  0
  3 27  1  0
  4 28  1  0
  4 29  1  0
  5 30  1  0
  5 31  1  0
  6 32  1  0
  6 33  1  0
  7 34  1  0
  8 35  1  0
  9 36  1  0
  9 37  1  0
 10 38  1  0
 10 39  1  0
 11 40  1  0
 12 41  1  0
 12 42  1  0
 13 43  1  0
 17 44  1  0
M  END
