
     RDKit          3D

 35 37  0  0  0  0  0  0  0  0999 V2000
   -2.8794   -0.3009    1.2530 C   0  0  0  0  0  0  0  0  0  0  0  0
    4.6132    1.1714    0.1115 C   0  0  0  0  0  0  0  0  0  0  0  0
   -3.3289    0.0898   -1.7932 C   0  0  0  0  0  0  0  0  0  0  0  0
   -2.1355   -0.8494   -1.6719 C   0  0  0  0  0  0  0  0  0  0  0  0
    4.0464    0.9944    1.3748 C   0  0  0  0  0  0  0  0  0  0  0  0
    3.9420    0.7545   -1.0318 C   0  0  0  0  0  0  0  0  0  0  0  0
   -3.1460    1.1167   -0.6837 C   0  0  0  0  0  0  0  0  0  0  0  0
   -0.2817   -1.2433    0.0309 C   0  0  0  0  0  0  0  0  0  0  0  0
    0.8648   -0.5147    2.1925 C   0  0  0  0  0  0  0  0  0  0  0  0
    0.8386   -0.6224    0.8141 C   0  0  0  0  0  0  0  0  0  0  0  0
   -1.2415   -0.2143   -0.6030 C   0  0  0  0  0  0  0  0  0  0  0  0
    2.7865    0.3836    1.4529 C   0  0  0  0  0  0  0  0  0  0  0  0
    2.6853    0.1504   -0.9340 C   0  0  0  0  0  0  0  0  0  0  0  0
    2.0732   -0.0524    0.3290 C   0  0  0  0  0  0  0  0  0  0  0  0
    2.0261    0.0996    2.5609 N   0  0  0  0  0  0  0  0  0  0  0  0
   -2.1881    0.5265    0.2651 N   0  0  0  0  0  0  0  0  0  0  0  0
    2.1105   -0.2178   -2.1322 O   0  0  0  0  0  0  0  0  0  0  0  0
   -2.1818   -0.6788    2.0056 H   0  0  0  0  0  0  0  0  0  0  0  0
   -3.4078   -1.1527    0.8115 H   0  0  0  0  0  0  0  0  0  0  0  0
   -3.6117    0.3013    1.8031 H   0  0  0  0  0  0  0  0  0  0  0  0
    5.5891    1.6419    0.0204 H   0  0  0  0  0  0  0  0  0  0  0  0
   -3.3610    0.5722   -2.7756 H   0  0  0  0  0  0  0  0  0  0  0  0
   -4.2610   -0.4711   -1.6619 H   0  0  0  0  0  0  0  0  0  0  0  0
   -2.4780   -1.8468   -1.3706 H   0  0  0  0  0  0  0  0  0  0  0  0
   -1.6094   -0.9525   -2.6269 H   0  0  0  0  0  0  0  0  0  0  0  0
    4.5715    1.3224    2.2665 H   0  0  0  0  0  0  0  0  0  0  0  0
    4.3925    0.8995   -2.0100 H   0  0  0  0  0  0  0  0  0  0  0  0
   -2.7045    2.0306   -1.1009 H   0  0  0  0  0  0  0  0  0  0  0  0
   -4.0963    1.4109   -0.2246 H   0  0  0  0  0  0  0  0  0  0  0  0
    0.1545   -1.8703   -0.7570 H   0  0  0  0  0  0  0  0  0  0  0  0
   -0.8325   -1.9485    0.6656 H   0  0  0  0  0  0  0  0  0  0  0  0
    0.1437   -0.8154    2.9406 H   0  0  0  0  0  0  0  0  0  0  0  0
   -0.6256    0.5479   -1.1025 H   0  0  0  0  0  0  0  0  0  0  0  0
    2.2960    0.3147    3.5105 H   0  0  0  0  0  0  0  0  0  0  0  0
    1.2369   -0.5771   -1.9286 H   0  0  0  0  0  0  0  0  0  0  0  0
  1 16  1  0
  2  5  2  0
  2  6  1  0
  3  4  1  0
  3  7  1  0
  4 11  1  0
  5 12  1  0
  6 13  2  0
  7 16  1  0
  8 10  1  0
  8 11  1  0
  9 10  2  0
  9 15  1  0
 10 14  1  0
 11 16  1  0
 12 14  2  0
 12 15  1  0
 13 14  1  0
 13 17  1  0
  1 18  1  0
  1 19  1  0
  1 20  1  0
  2 21  1  0
  3 22  1  0
  3 23  1  0
  4 24  1  0
  4 25  1  0
  5 26  1  0
  6 27  1  0
  7 28  1  0
  7 29  1  0
  8 30  1  0
  8 31  1  0
  9 32  1  0
 11 33  1  0
 15 34  1  0
 17 35  1  0
M  END
