
     RDKit          3D

 47 47  0  0  0  0  0  0  0  0999 V2000
    5.5605   -1.3135    1.0807 C   0  0  0  0  0  0  0  0  0  0  0  0
   -1.8947    2.4418    3.1418 C   0  0  0  0  0  0  0  0  0  0  0  0
   -4.2466   -2.1678   -1.8235 C   0  0  0  0  0  0  0  0  0  0  0  0
   -5.7620    1.3069    0.8451 C   0  0  0  0  0  0  0  0  0  0  0  0
    5.5872   -0.5110   -0.2106 C   0  0  0  0  0  0  0  0  0  0  0  0
    4.6436    0.6940   -0.2029 C   0  0  0  0  0  0  0  0  0  0  0  0
    3.1594    0.3824    0.0219 C   0  0  0  0  0  0  0  0  0  0  0  0
    2.5593   -0.5293   -1.0561 C   0  0  0  0  0  0  0  0  0  0  0  0
    0.1837    0.4420   -1.1729 C   0  0  0  0  0  0  0  0  0  0  0  0
   -1.3994    1.1473    0.6730 C   0  0  0  0  0  0  0  0  0  0  0  0
   -2.2113   -0.3705   -1.0358 C   0  0  0  0  0  0  0  0  0  0  0  0
   -1.1740    0.4094   -0.5011 C   0  0  0  0  0  0  0  0  0  0  0  0
    1.0533   -0.7976   -0.8516 C   0  0  0  0  0  0  0  0  0  0  0  0
   -2.6469    1.1240    1.3021 C   0  0  0  0  0  0  0  0  0  0  0  0
   -3.4635   -0.4154   -0.4188 C   0  0  0  0  0  0  0  0  0  0  0  0
   -3.6786    0.3571    0.7344 C   0  0  0  0  0  0  0  0  0  0  0  0
    0.6615   -1.9228   -1.7202 N   0  0  0  0  0  0  0  0  0  0  0  0
   -2.9617    1.8168    2.4432 O   0  0  0  0  0  0  0  0  0  0  0  0
   -4.5293   -1.1505   -0.8719 O   0  0  0  0  0  0  0  0  0  0  0  0
   -4.9009    0.2983    1.3696 O   0  0  0  0  0  0  0  0  0  0  0  0
    6.3273   -2.0944    1.0533 H   0  0  0  0  0  0  0  0  0  0  0  0
    5.7599   -0.6733    1.9457 H   0  0  0  0  0  0  0  0  0  0  0  0
    4.5940   -1.8045    1.2276 H   0  0  0  0  0  0  0  0  0  0  0  0
   -2.3010    2.8606    4.0676 H   0  0  0  0  0  0  0  0  0  0  0  0
   -1.1195    1.7186    3.4163 H   0  0  0  0  0  0  0  0  0  0  0  0
   -1.4763    3.2690    2.5593 H   0  0  0  0  0  0  0  0  0  0  0  0
   -3.4633   -2.8454   -1.4671 H   0  0  0  0  0  0  0  0  0  0  0  0
   -5.1580   -2.7575   -1.9622 H   0  0  0  0  0  0  0  0  0  0  0  0
   -3.9832   -1.7327   -2.7929 H   0  0  0  0  0  0  0  0  0  0  0  0
   -5.9571    1.1523   -0.2217 H   0  0  0  0  0  0  0  0  0  0  0  0
   -5.3533    2.3093    1.0139 H   0  0  0  0  0  0  0  0  0  0  0  0
   -6.7170    1.2395    1.3748 H   0  0  0  0  0  0  0  0  0  0  0  0
    6.6088   -0.1455   -0.3718 H   0  0  0  0  0  0  0  0  0  0  0  0
    5.3605   -1.1693   -1.0562 H   0  0  0  0  0  0  0  0  0  0  0  0
    4.9703    1.3915    0.5788 H   0  0  0  0  0  0  0  0  0  0  0  0
    4.7538    1.2273   -1.1554 H   0  0  0  0  0  0  0  0  0  0  0  0
    2.6260    1.3384    0.0459 H   0  0  0  0  0  0  0  0  0  0  0  0
    3.0172   -0.0709    1.0096 H   0  0  0  0  0  0  0  0  0  0  0  0
    2.7308   -0.0929   -2.0485 H   0  0  0  0  0  0  0  0  0  0  0  0
    3.0936   -1.4872   -1.0339 H   0  0  0  0  0  0  0  0  0  0  0  0
    0.6904    1.3634   -0.8661 H   0  0  0  0  0  0  0  0  0  0  0  0
    0.0461    0.5503   -2.2577 H   0  0  0  0  0  0  0  0  0  0  0  0
   -0.5835    1.7390    1.0749 H   0  0  0  0  0  0  0  0  0  0  0  0
   -2.0102   -0.9399   -1.9382 H   0  0  0  0  0  0  0  0  0  0  0  0
    0.8891   -1.1063    0.1883 H   0  0  0  0  0  0  0  0  0  0  0  0
    0.9319   -1.7250   -2.6831 H   0  0  0  0  0  0  0  0  0  0  0  0
    1.1829   -2.7560   -1.4476 H   0  0  0  0  0  0  0  0  0  0  0  0
  1  5  1  0
  2 18  1  0
  3 19  1  0
  4 20  1  0
  5  6  1  0
  6  7  1  0
  7  8  1  0
  8 13  1  0
  9 12  1  0
  9 13  1  0
 10 12  2  0
 10 14  1  0
 11 12  1  0
 11 15  2  0
 13 17  1  0
 14 16  2  0
 14 18  1  0
 15 16  1  0
 15 19  1  0
 16 20  1  0
  1 21  1  0
  1 22  1  0
  1 23  1  0
  2 24  1  0
  2 25  1  0
  2 26  1  0
  3 27  1  0
  3 28  1  0
  3 29  1  0
  4 30  1  0
  4 31  1  0
  4 32  1  0
  5 33  1  0
  5 34  1  0
  6 35  1  0
  6 36  1  0
  7 37  1  0
  7 38  1  0
  8 39  1  0
  8 40  1  0
  9 41  1  0
  9 42  1  0
 10 43  1  0
 11 44  1  0
 13 45  1  0
 17 46  1  0
 17 47  1  0
M  END
