
     RDKit          3D

 50 50  0  0  0  0  0  0  0  0999 V2000
    5.9392   -0.4986    0.8373 C   0  0  0  0  0  0  0  0  0  0  0  0
   -3.5217    2.8947   -2.9705 C   0  0  0  0  0  0  0  0  0  0  0  0
   -3.2544   -0.9603    3.1001 C   0  0  0  0  0  0  0  0  0  0  0  0
   -5.5093   -0.7513   -0.9139 C   0  0  0  0  0  0  0  0  0  0  0  0
    5.3764   -1.8949    0.6204 C   0  0  0  0  0  0  0  0  0  0  0  0
    3.9580   -1.8968    0.0446 C   0  0  0  0  0  0  0  0  0  0  0  0
    2.9171   -1.3189    1.0069 C   0  0  0  0  0  0  0  0  0  0  0  0
    1.4785   -1.4668    0.5046 C   0  0  0  0  0  0  0  0  0  0  0  0
    1.1226   -0.7722   -0.8185 C   0  0  0  0  0  0  0  0  0  0  0  0
    0.3162    1.4680    0.2219 C   0  0  0  0  0  0  0  0  0  0  0  0
   -1.9081    1.7144   -0.9640 C   0  0  0  0  0  0  0  0  0  0  0  0
   -1.8252    0.4362    1.0958 C   0  0  0  0  0  0  0  0  0  0  0  0
   -1.1702    1.1976    0.1144 C   0  0  0  0  0  0  0  0  0  0  0  0
    1.1633    0.7715   -0.8677 C   0  0  0  0  0  0  0  0  0  0  0  0
   -3.2778    1.4648   -1.0777 C   0  0  0  0  0  0  0  0  0  0  0  0
   -3.1937    0.1713    1.0007 C   0  0  0  0  0  0  0  0  0  0  0  0
   -3.9055    0.6727   -0.1019 C   0  0  0  0  0  0  0  0  0  0  0  0
    2.5445    1.2649   -0.8110 N   0  0  0  0  0  0  0  0  0  0  0  0
   -4.0746    1.9213   -2.0961 O   0  0  0  0  0  0  0  0  0  0  0  0
   -3.9136   -0.5665    1.9049 O   0  0  0  0  0  0  0  0  0  0  0  0
   -5.2635    0.4506   -0.1864 O   0  0  0  0  0  0  0  0  0  0  0  0
    5.3880    0.0406    1.6131 H   0  0  0  0  0  0  0  0  0  0  0  0
    6.9844   -0.5607    1.1567 H   0  0  0  0  0  0  0  0  0  0  0  0
    5.9016    0.0882   -0.0860 H   0  0  0  0  0  0  0  0  0  0  0  0
   -3.1678    3.7721   -2.4188 H   0  0  0  0  0  0  0  0  0  0  0  0
   -4.3154    3.2255   -3.6473 H   0  0  0  0  0  0  0  0  0  0  0  0
   -2.7230    2.4627   -3.5820 H   0  0  0  0  0  0  0  0  0  0  0  0
   -2.8824   -0.0921    3.6542 H   0  0  0  0  0  0  0  0  0  0  0  0
   -3.9869   -1.4697    3.7336 H   0  0  0  0  0  0  0  0  0  0  0  0
   -2.4485   -1.6705    2.8880 H   0  0  0  0  0  0  0  0  0  0  0  0
   -5.0777   -1.6214   -0.4073 H   0  0  0  0  0  0  0  0  0  0  0  0
   -5.1295   -0.6833   -1.9392 H   0  0  0  0  0  0  0  0  0  0  0  0
   -6.5928   -0.8951   -0.9653 H   0  0  0  0  0  0  0  0  0  0  0  0
    5.3976   -2.4487    1.5661 H   0  0  0  0  0  0  0  0  0  0  0  0
    6.0338   -2.4306   -0.0749 H   0  0  0  0  0  0  0  0  0  0  0  0
    3.9561   -1.3447   -0.9011 H   0  0  0  0  0  0  0  0  0  0  0  0
    3.6867   -2.9326   -0.1940 H   0  0  0  0  0  0  0  0  0  0  0  0
    3.1288   -0.2691    1.2284 H   0  0  0  0  0  0  0  0  0  0  0  0
    2.9931   -1.8497    1.9646 H   0  0  0  0  0  0  0  0  0  0  0  0
    0.8008   -1.1262    1.2941 H   0  0  0  0  0  0  0  0  0  0  0  0
    1.2695   -2.5380    0.3834 H   0  0  0  0  0  0  0  0  0  0  0  0
    0.1044   -1.0876   -1.0835 H   0  0  0  0  0  0  0  0  0  0  0  0
    1.7552   -1.1742   -1.6201 H   0  0  0  0  0  0  0  0  0  0  0  0
    0.6805    1.1988    1.2213 H   0  0  0  0  0  0  0  0  0  0  0  0
    0.4503    2.5568    0.1520 H   0  0  0  0  0  0  0  0  0  0  0  0
   -1.3874    2.3115   -1.7058 H   0  0  0  0  0  0  0  0  0  0  0  0
   -1.2418    0.0562    1.9282 H   0  0  0  0  0  0  0  0  0  0  0  0
    0.7738    1.0648   -1.8512 H   0  0  0  0  0  0  0  0  0  0  0  0
    2.5611    2.2710   -0.9736 H   0  0  0  0  0  0  0  0  0  0  0  0
    3.0893    0.8447   -1.5634 H   0  0  0  0  0  0  0  0  0  0  0  0
  1  5  1  0
  2 19  1  0
  3 20  1  0
  4 21  1  0
  5  6  1  0
  6  7  1  0
  7  8  1  0
  8  9  1  0
  9 14  1  0
 10 13  1  0
 10 14  1  0
 11 13  2  0
 11 15  1  0
 12 13  1  0
 12 16  2  0
 14 18  1  0
 15 17  2  0
 15 19  1  0
 16 17  1  0
 16 20  1  0
 17 21  1  0
  1 22  1  0
  1 23  1  0
  1 24  1  0
  2 25  1  0
  2 26  1  0
  2 27  1  0
  3 28  1  0
  3 29  1  0
  3 30  1  0
  4 31  1  0
  4 32  1  0
  4 33  1  0
  5 34  1  0
  5 35  1  0
  6 36  1  0
  6 37  1  0
  7 38  1  0
  7 39  1  0
  8 40  1  0
  8 41  1  0
  9 42  1  0
  9 43  1  0
 10 44  1  0
 10 45  1  0
 11 46  1  0
 12 47  1  0
 14 48  1  0
 18 49  1  0
 18 50  1  0
M  END
