
     RDKit          3D

 49 50  0  0  0  0  0  0  0  0999 V2000
   -2.4685   -3.0208   -1.2455 C   0  0  0  0  0  0  0  0  0  0  0  0
   -3.3902    4.4633    0.1251 C   0  0  0  0  0  0  0  0  0  0  0  0
   -3.1878   -2.0071   -0.3684 C   0  0  0  0  0  0  0  0  0  0  0  0
   -2.1419    3.5948    0.1018 C   0  0  0  0  0  0  0  0  0  0  0  0
   -2.2428   -1.0125    0.3148 C   0  0  0  0  0  0  0  0  0  0  0  0
   -2.2552    2.4284    1.0872 C   0  0  0  0  0  0  0  0  0  0  0  0
    5.2544   -2.0410    0.0001 C   0  0  0  0  0  0  0  0  0  0  0  0
    4.7068   -1.0881   -0.8579 C   0  0  0  0  0  0  0  0  0  0  0  0
    4.4756   -2.5947    1.0127 C   0  0  0  0  0  0  0  0  0  0  0  0
    2.8333    0.3762   -1.6518 C   0  0  0  0  0  0  0  0  0  0  0  0
    1.3086    0.4907   -1.6389 C   0  0  0  0  0  0  0  0  0  0  0  0
   -1.6118   -0.0114   -0.6711 C   0  0  0  0  0  0  0  0  0  0  0  0
   -0.9829    1.5666    1.1419 C   0  0  0  0  0  0  0  0  0  0  0  0
    1.1359   -0.8194    0.4894 C   0  0  0  0  0  0  0  0  0  0  0  0
    3.3717   -0.6783   -0.7159 C   0  0  0  0  0  0  0  0  0  0  0  0
    0.7927    0.5209   -0.1894 C   0  0  0  0  0  0  0  0  0  0  0  0
    2.5877   -1.2163    0.3232 C   0  0  0  0  0  0  0  0  0  0  0  0
    3.1521   -2.1849    1.1647 C   0  0  0  0  0  0  0  0  0  0  0  0
   -0.6260    0.9417   -0.1380 N   0  0  0  0  0  0  0  0  0  0  0  0
    2.3767   -2.7345    2.1480 O   0  0  0  0  0  0  0  0  0  0  0  0
   -2.0000   -2.5459   -2.1119 H   0  0  0  0  0  0  0  0  0  0  0  0
   -1.6945   -3.5500   -0.6806 H   0  0  0  0  0  0  0  0  0  0  0  0
   -3.1802   -3.7632   -1.6209 H   0  0  0  0  0  0  0  0  0  0  0  0
   -4.2763    3.8836   -0.1528 H   0  0  0  0  0  0  0  0  0  0  0  0
   -3.2894    5.2908   -0.5841 H   0  0  0  0  0  0  0  0  0  0  0  0
   -3.5548    4.8876    1.1207 H   0  0  0  0  0  0  0  0  0  0  0  0
   -3.7354   -2.5530    0.4094 H   0  0  0  0  0  0  0  0  0  0  0  0
   -3.9349   -1.4690   -0.9631 H   0  0  0  0  0  0  0  0  0  0  0  0
   -1.9914    3.2206   -0.9169 H   0  0  0  0  0  0  0  0  0  0  0  0
   -1.2712    4.2112    0.3538 H   0  0  0  0  0  0  0  0  0  0  0  0
   -1.4788   -1.5672    0.8667 H   0  0  0  0  0  0  0  0  0  0  0  0
   -2.8311   -0.4704    1.0636 H   0  0  0  0  0  0  0  0  0  0  0  0
   -3.1299    1.8182    0.8370 H   0  0  0  0  0  0  0  0  0  0  0  0
   -2.4378    2.8276    2.0931 H   0  0  0  0  0  0  0  0  0  0  0  0
    6.2883   -2.3519   -0.1242 H   0  0  0  0  0  0  0  0  0  0  0  0
    5.3276   -0.6633   -1.6443 H   0  0  0  0  0  0  0  0  0  0  0  0
    4.9133   -3.3406    1.6682 H   0  0  0  0  0  0  0  0  0  0  0  0
    3.1594    0.1635   -2.6771 H   0  0  0  0  0  0  0  0  0  0  0  0
    3.2693    1.3404   -1.3612 H   0  0  0  0  0  0  0  0  0  0  0  0
    1.0162    1.4008   -2.1770 H   0  0  0  0  0  0  0  0  0  0  0  0
    0.8826   -0.3590   -2.1865 H   0  0  0  0  0  0  0  0  0  0  0  0
   -2.4274    0.5769   -1.1118 H   0  0  0  0  0  0  0  0  0  0  0  0
   -1.1838   -0.5489   -1.5216 H   0  0  0  0  0  0  0  0  0  0  0  0
   -0.1730    2.2345    1.4638 H   0  0  0  0  0  0  0  0  0  0  0  0
   -1.0795    0.8142    1.9335 H   0  0  0  0  0  0  0  0  0  0  0  0
    0.8898   -0.7473    1.5552 H   0  0  0  0  0  0  0  0  0  0  0  0
    0.5455   -1.6324    0.0520 H   0  0  0  0  0  0  0  0  0  0  0  0
    1.3817    1.3048    0.3096 H   0  0  0  0  0  0  0  0  0  0  0  0
    2.9073   -3.3864    2.6336 H   0  0  0  0  0  0  0  0  0  0  0  0
  1  3  1  0
  2  4  1  0
  3  5  1  0
  4  6  1  0
  5 12  1  0
  6 13  1  0
  7  8  2  0
  7  9  1  0
  8 15  1  0
  9 18  2  0
 10 11  1  0
 10 15  1  0
 11 16  1  0
 12 19  1  0
 13 19  1  0
 14 16  1  0
 14 17  1  0
 15 17  2  0
 16 19  1  0
 17 18  1  0
 18 20  1  0
  1 21  1  0
  1 22  1  0
  1 23  1  0
  2 24  1  0
  2 25  1  0
  2 26  1  0
  3 27  1  0
  3 28  1  0
  4 29  1  0
  4 30  1  0
  5 31  1  0
  5 32  1  0
  6 33  1  0
  6 34  1  0
  7 35  1  0
  8 36  1  0
  9 37  1  0
 10 38  1  0
 10 39  1  0
 11 40  1  0
 11 41  1  0
 12 42  1  0
 12 43  1  0
 13 44  1  0
 13 45  1  0
 14 46  1  0
 14 47  1  0
 16 48  1  0
 20 49  1  0
M  END
