
     RDKit          3D

 59 59  0  0  0  0  0  0  0  0999 V2000
    8.1573    2.1372   -0.9855 C   0  0  0  0  0  0  0  0  0  0  0  0
   -4.3218    3.4168   -1.4617 C   0  0  0  0  0  0  0  0  0  0  0  0
   -5.5294   -1.9472    3.1845 C   0  0  0  0  0  0  0  0  0  0  0  0
   -7.5881    0.4072   -0.2261 C   0  0  0  0  0  0  0  0  0  0  0  0
    6.6705    2.4185   -0.8326 C   0  0  0  0  0  0  0  0  0  0  0  0
    5.7891    1.1801   -1.0176 C   0  0  0  0  0  0  0  0  0  0  0  0
    5.9741    0.1361    0.0870 C   0  0  0  0  0  0  0  0  0  0  0  0
    5.1028   -1.1104   -0.1017 C   0  0  0  0  0  0  0  0  0  0  0  0
    3.6036   -0.8366    0.0473 C   0  0  0  0  0  0  0  0  0  0  0  0
    2.7954   -2.1352   -0.0287 C   0  0  0  0  0  0  0  0  0  0  0  0
    1.2961   -1.9365    0.2235 C   0  0  0  0  0  0  0  0  0  0  0  0
    0.6031   -1.1157   -0.8721 C   0  0  0  0  0  0  0  0  0  0  0  0
   -1.3434   -0.3070    0.5846 C   0  0  0  0  0  0  0  0  0  0  0  0
   -3.2901    1.1561   -0.1053 C   0  0  0  0  0  0  0  0  0  0  0  0
   -3.7009   -0.6754    1.4340 C   0  0  0  0  0  0  0  0  0  0  0  0
   -2.8103    0.0668    0.6410 C   0  0  0  0  0  0  0  0  0  0  0  0
   -0.9296   -0.9926   -0.7387 C   0  0  0  0  0  0  0  0  0  0  0  0
   -4.6426    1.5035   -0.0722 C   0  0  0  0  0  0  0  0  0  0  0  0
   -5.0567   -0.3432    1.4844 C   0  0  0  0  0  0  0  0  0  0  0  0
   -5.5201    0.7346    0.7109 C   0  0  0  0  0  0  0  0  0  0  0  0
   -1.5626   -2.3076   -0.9069 N   0  0  0  0  0  0  0  0  0  0  0  0
   -5.2018    2.5454   -0.7661 O   0  0  0  0  0  0  0  0  0  0  0  0
   -5.9982   -1.0104    2.2250 O   0  0  0  0  0  0  0  0  0  0  0  0
   -6.8494    1.0932    0.7829 O   0  0  0  0  0  0  0  0  0  0  0  0
    8.7221    3.0741   -0.9454 H   0  0  0  0  0  0  0  0  0  0  0  0
    8.5296    1.4934   -0.1836 H   0  0  0  0  0  0  0  0  0  0  0  0
    8.3697    1.6549   -1.9448 H   0  0  0  0  0  0  0  0  0  0  0  0
   -3.5961    3.8752   -0.7817 H   0  0  0  0  0  0  0  0  0  0  0  0
   -4.9226    4.2208   -1.8976 H   0  0  0  0  0  0  0  0  0  0  0  0
   -3.8205    2.8945   -2.2830 H   0  0  0  0  0  0  0  0  0  0  0  0
   -4.8268   -1.4840    3.8852 H   0  0  0  0  0  0  0  0  0  0  0  0
   -5.0832   -2.8186    2.6945 H   0  0  0  0  0  0  0  0  0  0  0  0
   -6.3920   -2.2960    3.7603 H   0  0  0  0  0  0  0  0  0  0  0  0
   -7.5499   -0.6780   -0.0811 H   0  0  0  0  0  0  0  0  0  0  0  0
   -7.2329    0.6668   -1.2296 H   0  0  0  0  0  0  0  0  0  0  0  0
   -8.6332    0.7212   -0.1469 H   0  0  0  0  0  0  0  0  0  0  0  0
    6.3807    3.1642   -1.5826 H   0  0  0  0  0  0  0  0  0  0  0  0
    6.4823    2.8678    0.1495 H   0  0  0  0  0  0  0  0  0  0  0  0
    5.9927    0.7265   -1.9951 H   0  0  0  0  0  0  0  0  0  0  0  0
    4.7464    1.5161   -1.0342 H   0  0  0  0  0  0  0  0  0  0  0  0
    7.0194   -0.1920    0.1090 H   0  0  0  0  0  0  0  0  0  0  0  0
    5.7629    0.5878    1.0638 H   0  0  0  0  0  0  0  0  0  0  0  0
    5.4061   -1.8526    0.6474 H   0  0  0  0  0  0  0  0  0  0  0  0
    5.3028   -1.5544   -1.0844 H   0  0  0  0  0  0  0  0  0  0  0  0
    3.4139   -0.3418    1.0071 H   0  0  0  0  0  0  0  0  0  0  0  0
    3.2759   -0.1554   -0.7437 H   0  0  0  0  0  0  0  0  0  0  0  0
    2.9452   -2.6090   -1.0065 H   0  0  0  0  0  0  0  0  0  0  0  0
    3.1760   -2.8374    0.7236 H   0  0  0  0  0  0  0  0  0  0  0  0
    1.1590   -1.4569    1.1991 H   0  0  0  0  0  0  0  0  0  0  0  0
    0.8363   -2.9291    0.2888 H   0  0  0  0  0  0  0  0  0  0  0  0
    1.0212   -0.1019   -0.8852 H   0  0  0  0  0  0  0  0  0  0  0  0
    0.8382   -1.5554   -1.8506 H   0  0  0  0  0  0  0  0  0  0  0  0
   -1.1007   -0.9497    1.4405 H   0  0  0  0  0  0  0  0  0  0  0  0
   -0.7554    0.6096    0.7262 H   0  0  0  0  0  0  0  0  0  0  0  0
   -2.5837    1.7176   -0.7087 H   0  0  0  0  0  0  0  0  0  0  0  0
   -3.3116   -1.5144    2.0019 H   0  0  0  0  0  0  0  0  0  0  0  0
   -1.2667   -0.3712   -1.5782 H   0  0  0  0  0  0  0  0  0  0  0  0
   -2.5766   -2.1863   -0.9296 H   0  0  0  0  0  0  0  0  0  0  0  0
   -1.3752   -2.8927   -0.0945 H   0  0  0  0  0  0  0  0  0  0  0  0
  1  5  1  0
  2 22  1  0
  3 23  1  0
  4 24  1  0
  5  6  1  0
  6  7  1  0
  7  8  1  0
  8  9  1  0
  9 10  1  0
 10 11  1  0
 11 12  1  0
 12 17  1  0
 13 16  1  0
 13 17  1  0
 14 16  2  0
 14 18  1  0
 15 16  1  0
 15 19  2  0
 17 21  1  0
 18 20  2  0
 18 22  1  0
 19 20  1  0
 19 23  1  0
 20 24  1  0
  1 25  1  0
  1 26  1  0
  1 27  1  0
  2 28  1  0
  2 29  1  0
  2 30  1  0
  3 31  1  0
  3 32  1  0
  3 33  1  0
  4 34  1  0
  4 35  1  0
  4 36  1  0
  5 37  1  0
  5 38  1  0
  6 39  1  0
  6 40  1  0
  7 41  1  0
  7 42  1  0
  8 43  1  0
  8 44  1  0
  9 45  1  0
  9 46  1  0
 10 47  1  0
 10 48  1  0
 11 49  1  0
 11 50  1  0
 12 51  1  0
 12 52  1  0
 13 53  1  0
 13 54  1  0
 14 55  1  0
 15 56  1  0
 17 57  1  0
 21 58  1  0
 21 59  1  0
M  END
