
     RDKit          3D

 21 22  0  0  0  0  0  0  0  0999 V2000
    1.6213   -0.5940   -1.1211 C   0  0  0  0  0  0  0  0  0  0  0  0
    2.7051   -0.0462   -0.4302 C   0  0  0  0  0  0  0  0  0  0  0  0
    1.2479    0.6278    1.4050 C   0  0  0  0  0  0  0  0  0  0  0  0
   -0.9287   -1.0540   -1.0761 C   0  0  0  0  0  0  0  0  0  0  0  0
   -1.2547    0.0138    1.1304 C   0  0  0  0  0  0  0  0  0  0  0  0
    0.3647   -0.5123   -0.5439 C   0  0  0  0  0  0  0  0  0  0  0  0
    0.1796    0.0920    0.7044 C   0  0  0  0  0  0  0  0  0  0  0  0
    2.5145    0.5581    0.8220 C   0  0  0  0  0  0  0  0  0  0  0  0
   -1.9734   -0.3176   -0.2017 C   0  0  0  0  0  0  0  0  0  0  0  0
    4.0018    1.2837    1.7395 Br  0  0  0  0  0  0  0  0  0  0  0  0
   -2.4607    0.8982   -0.8800 N   0  0  0  0  0  0  0  0  0  0  0  0
    1.7652   -1.0712   -2.0856 H   0  0  0  0  0  0  0  0  0  0  0  0
    3.6981   -0.0976   -0.8698 H   0  0  0  0  0  0  0  0  0  0  0  0
    1.1008    1.0852    2.3778 H   0  0  0  0  0  0  0  0  0  0  0  0
   -1.0549   -0.8535   -2.1448 H   0  0  0  0  0  0  0  0  0  0  0  0
   -0.9745   -2.1347   -0.9020 H   0  0  0  0  0  0  0  0  0  0  0  0
   -1.3815   -0.8036    1.8488 H   0  0  0  0  0  0  0  0  0  0  0  0
   -1.6062    0.9480    1.5794 H   0  0  0  0  0  0  0  0  0  0  0  0
   -2.8468   -0.9543   -0.0239 H   0  0  0  0  0  0  0  0  0  0  0  0
   -3.0541    1.4286   -0.2432 H   0  0  0  0  0  0  0  0  0  0  0  0
   -1.6635    1.5036   -1.0851 H   0  0  0  0  0  0  0  0  0  0  0  0
  1  2  2  0
  1  6  1  0
  2  8  1  0
  3  7  1  0
  3  8  2  0
  4  6  1  0
  4  9  1  0
  5  7  1  0
  5  9  1  0
  6  7  2  0
  8 10  1  0
  9 11  1  0
  1 12  1  0
  2 13  1  0
  3 14  1  0
  4 15  1  0
  4 16  1  0
  5 17  1  0
  5 18  1  0
  9 19  1  0
 11 20  1  0
 11 21  1  0
M  END
