
     RDKit          3D

 23 23  0  0  0  0  0  0  0  0999 V2000
   -1.9014    1.3696    0.2495 C   0  0  0  0  0  0  0  0  0  0  0  0
    1.2461   -1.0182    0.8139 C   0  0  0  0  0  0  0  0  0  0  0  0
    1.3096    0.5311   -1.0424 C   0  0  0  0  0  0  0  0  0  0  0  0
    2.5574   -0.6708    1.1480 C   0  0  0  0  0  0  0  0  0  0  0  0
    2.6208    0.8781   -0.7073 C   0  0  0  0  0  0  0  0  0  0  0  0
   -1.8883   -0.1582    0.3215 C   0  0  0  0  0  0  0  0  0  0  0  0
    0.6055   -0.4167   -0.2821 C   0  0  0  0  0  0  0  0  0  0  0  0
    3.2384    0.2768    0.3871 C   0  0  0  0  0  0  0  0  0  0  0  0
   -0.8209   -0.7897   -0.6375 C   0  0  0  0  0  0  0  0  0  0  0  0
    4.8527    0.7047    0.7996 Cl  0  0  0  0  0  0  0  0  0  0  0  0
   -1.1499   -0.4410   -1.9207 F   0  0  0  0  0  0  0  0  0  0  0  0
   -0.9960   -2.1500   -0.5931 F   0  0  0  0  0  0  0  0  0  0  0  0
   -3.2761   -0.6287    0.0553 N   0  0  0  0  0  0  0  0  0  0  0  0
   -2.1005    1.7221   -0.7686 H   0  0  0  0  0  0  0  0  0  0  0  0
   -0.9450    1.7908    0.5749 H   0  0  0  0  0  0  0  0  0  0  0  0
   -2.6732    1.7862    0.9071 H   0  0  0  0  0  0  0  0  0  0  0  0
    0.7281   -1.7695    1.4086 H   0  0  0  0  0  0  0  0  0  0  0  0
    0.8393    1.0030   -1.9043 H   0  0  0  0  0  0  0  0  0  0  0  0
    3.0420   -1.1453    1.9976 H   0  0  0  0  0  0  0  0  0  0  0  0
    3.1540    1.6133   -1.3047 H   0  0  0  0  0  0  0  0  0  0  0  0
   -1.6563   -0.4576    1.3506 H   0  0  0  0  0  0  0  0  0  0  0  0
   -3.5207   -0.3776   -0.9060 H   0  0  0  0  0  0  0  0  0  0  0  0
   -3.2656   -1.6524    0.0532 H   0  0  0  0  0  0  0  0  0  0  0  0
  1  6  1  0
  2  4  2  0
  2  7  1  0
  3  5  1  0
  3  7  2  0
  4  8  1  0
  5  8  2  0
  6  9  1  0
  6 13  1  0
  7  9  1  0
  8 10  1  0
  9 11  1  0
  9 12  1  0
  1 14  1  0
  1 15  1  0
  1 16  1  0
  2 17  1  0
  3 18  1  0
  4 19  1  0
  5 20  1  0
  6 21  1  0
 13 22  1  0
 13 23  1  0
M  END
