
     RDKit          3D

 23 23  0  0  0  0  0  0  0  0999 V2000
    1.9244   -0.6296    1.2261 C   0  0  0  0  0  0  0  0  0  0  0  0
   -1.0655    1.0632   -0.7634 C   0  0  0  0  0  0  0  0  0  0  0  0
   -2.3157    1.4425   -0.2707 C   0  0  0  0  0  0  0  0  0  0  0  0
    0.7707   -0.6592   -1.0638 C   0  0  0  0  0  0  0  0  0  0  0  0
   -2.6221   -0.7603    0.6795 C   0  0  0  0  0  0  0  0  0  0  0  0
    1.9953   -0.2017   -0.2391 C   0  0  0  0  0  0  0  0  0  0  0  0
   -0.5811   -0.2340   -0.5407 C   0  0  0  0  0  0  0  0  0  0  0  0
   -3.0808    0.5271    0.4444 C   0  0  0  0  0  0  0  0  0  0  0  0
   -1.3764   -1.1293    0.1862 C   0  0  0  0  0  0  0  0  0  0  0  0
   -4.2795    0.8962    0.9148 F   0  0  0  0  0  0  0  0  0  0  0  0
   -0.9353   -2.3737    0.4216 F   0  0  0  0  0  0  0  0  0  0  0  0
    2.2114    1.2480   -0.3213 N   0  0  0  0  0  0  0  0  0  0  0  0
    2.8644   -0.4036    1.7424 H   0  0  0  0  0  0  0  0  0  0  0  0
    1.1209   -0.1174    1.7661 H   0  0  0  0  0  0  0  0  0  0  0  0
    1.7565   -1.7089    1.3064 H   0  0  0  0  0  0  0  0  0  0  0  0
   -0.4651    1.7862   -1.3114 H   0  0  0  0  0  0  0  0  0  0  0  0
   -2.6936    2.4466   -0.4358 H   0  0  0  0  0  0  0  0  0  0  0  0
    0.7953   -1.7542   -1.1441 H   0  0  0  0  0  0  0  0  0  0  0  0
    0.8704   -0.3019   -2.0981 H   0  0  0  0  0  0  0  0  0  0  0  0
   -3.2231   -1.4657    1.2399 H   0  0  0  0  0  0  0  0  0  0  0  0
    2.8780   -0.6815   -0.6807 H   0  0  0  0  0  0  0  0  0  0  0  0
    3.0329    1.5027    0.2265 H   0  0  0  0  0  0  0  0  0  0  0  0
    2.4180    1.5084   -1.2846 H   0  0  0  0  0  0  0  0  0  0  0  0
  1  6  1  0
  2  3  2  0
  2  7  1  0
  3  8  1  0
  4  6  1  0
  4  7  1  0
  5  8  2  0
  5  9  1  0
  6 12  1  0
  7  9  2  0
  8 10  1  0
  9 11  1  0
  1 13  1  0
  1 14  1  0
  1 15  1  0
  2 16  1  0
  3 17  1  0
  4 18  1  0
  4 19  1  0
  5 20  1  0
  6 21  1  0
 12 22  1  0
 12 23  1  0
M  END
