
     RDKit          3D

 23 23  0  0  0  0  0  0  0  0999 V2000
   -2.1574   -1.5751    2.4020 C   0  0  0  0  0  0  0  0  0  0  0  0
   -2.5051   -0.0631    0.4176 C   0  0  0  0  0  0  0  0  0  0  0  0
   -2.0106    0.7276   -0.6225 C   0  0  0  0  0  0  0  0  0  0  0  0
   -0.2487   -0.5754    1.1003 C   0  0  0  0  0  0  0  0  0  0  0  0
    2.3493    0.4856   -1.4725 C   0  0  0  0  0  0  0  0  0  0  0  0
   -1.6297   -0.7071    1.2979 C   0  0  0  0  0  0  0  0  0  0  0  0
    0.2586    0.2038    0.0478 C   0  0  0  0  0  0  0  0  0  0  0  0
   -0.6325    0.8666   -0.8018 C   0  0  0  0  0  0  0  0  0  0  0  0
    1.7387    0.2882   -0.0862 C   0  0  0  0  0  0  0  0  0  0  0  0
    3.6802   -0.1445   -1.5190 N   0  0  0  0  0  0  0  0  0  0  0  0
   -0.1729    1.6789   -1.8001 O   0  0  0  0  0  0  0  0  0  0  0  0
    2.4374    0.1963    0.9271 O   0  0  0  0  0  0  0  0  0  0  0  0
   -3.1339   -1.2189    2.7465 H   0  0  0  0  0  0  0  0  0  0  0  0
   -1.4839   -1.5608    3.2653 H   0  0  0  0  0  0  0  0  0  0  0  0
   -2.2612   -2.6061    2.0500 H   0  0  0  0  0  0  0  0  0  0  0  0
   -3.5812   -0.1672    0.5426 H   0  0  0  0  0  0  0  0  0  0  0  0
   -2.7175    1.2285   -1.2779 H   0  0  0  0  0  0  0  0  0  0  0  0
    0.4438   -1.0864    1.7689 H   0  0  0  0  0  0  0  0  0  0  0  0
    2.4479    1.5599   -1.6548 H   0  0  0  0  0  0  0  0  0  0  0  0
    1.7295    0.0226   -2.2443 H   0  0  0  0  0  0  0  0  0  0  0  0
    4.1319    0.0300   -0.6159 H   0  0  0  0  0  0  0  0  0  0  0  0
    4.2476    0.3246   -2.2210 H   0  0  0  0  0  0  0  0  0  0  0  0
   -0.9302    2.0920   -2.2500 H   0  0  0  0  0  0  0  0  0  0  0  0
  1  6  1  0
  2  3  2  0
  2  6  1  0
  3  8  1  0
  4  6  2  0
  4  7  1  0
  5  9  1  0
  5 10  1  0
  7  8  2  0
  7  9  1  0
  8 11  1  0
  9 12  2  0
  1 13  1  0
  1 14  1  0
  1 15  1  0
  2 16  1  0
  3 17  1  0
  4 18  1  0
  5 19  1  0
  5 20  1  0
 10 21  1  0
 10 22  1  0
 11 23  1  0
M  END
