
     RDKit          3D

 24 24  0  0  0  0  0  0  0  0999 V2000
    3.6637   -1.1335    0.2210 C   0  0  0  0  0  0  0  0  0  0  0  0
    1.7278    1.9190   -0.0852 C   0  0  0  0  0  0  0  0  0  0  0  0
    0.4119    2.3798   -0.1314 C   0  0  0  0  0  0  0  0  0  0  0  0
    0.9386   -0.3462    0.1051 C   0  0  0  0  0  0  0  0  0  0  0  0
   -2.9189   -0.5917   -0.1597 C   0  0  0  0  0  0  0  0  0  0  0  0
    2.0002    0.5568    0.0357 C   0  0  0  0  0  0  0  0  0  0  0  0
   -0.3979    0.0997    0.0542 C   0  0  0  0  0  0  0  0  0  0  0  0
   -0.6477    1.4728   -0.0595 C   0  0  0  0  0  0  0  0  0  0  0  0
   -1.4619   -0.9522    0.1314 C   0  0  0  0  0  0  0  0  0  0  0  0
   -3.7403   -1.8195   -0.2214 N   0  0  0  0  0  0  0  0  0  0  0  0
   -1.9219    1.9607   -0.0903 O   0  0  0  0  0  0  0  0  0  0  0  0
   -1.1354   -2.1083    0.4196 O   0  0  0  0  0  0  0  0  0  0  0  0
    3.3299    0.2420    0.0728 O   0  0  0  0  0  0  0  0  0  0  0  0
    3.3066   -1.7197   -0.6321 H   0  0  0  0  0  0  0  0  0  0  0  0
    3.2804   -1.5333    1.1657 H   0  0  0  0  0  0  0  0  0  0  0  0
    4.7549   -1.2114    0.2449 H   0  0  0  0  0  0  0  0  0  0  0  0
    2.5512    2.6281   -0.1404 H   0  0  0  0  0  0  0  0  0  0  0  0
    0.2378    3.4484   -0.2206 H   0  0  0  0  0  0  0  0  0  0  0  0
    1.1254   -1.4127    0.1971 H   0  0  0  0  0  0  0  0  0  0  0  0
   -2.9938   -0.0849   -1.1254 H   0  0  0  0  0  0  0  0  0  0  0  0
   -3.3094    0.0367    0.6448 H   0  0  0  0  0  0  0  0  0  0  0  0
   -3.5767   -2.3309    0.6504 H   0  0  0  0  0  0  0  0  0  0  0  0
   -3.3244   -2.4316   -0.9268 H   0  0  0  0  0  0  0  0  0  0  0  0
   -1.9002    2.9318   -0.1499 H   0  0  0  0  0  0  0  0  0  0  0  0
  1 13  1  0
  2  3  2  0
  2  6  1  0
  3  8  1  0
  4  6  2  0
  4  7  1  0
  5  9  1  0
  5 10  1  0
  6 13  1  0
  7  8  2  0
  7  9  1  0
  8 11  1  0
  9 12  2  0
  1 14  1  0
  1 15  1  0
  1 16  1  0
  2 17  1  0
  3 18  1  0
  4 19  1  0
  5 20  1  0
  5 21  1  0
 10 22  1  0
 10 23  1  0
 11 24  1  0
M  END
