
     RDKit          3D

 22 22  0  0  0  0  0  0  0  0999 V2000
   -3.5863   -0.7225   -0.0603 C   0  0  0  0  0  0  0  0  0  0  0  0
    3.7673    0.1677    0.1357 C   0  0  0  0  0  0  0  0  0  0  0  0
    1.0134    0.7681   -0.0519 C   0  0  0  0  0  0  0  0  0  0  0  0
   -0.8306   -1.3232    0.1274 C   0  0  0  0  0  0  0  0  0  0  0  0
   -0.8147    2.4198   -0.3298 C   0  0  0  0  0  0  0  0  0  0  0  0
   -0.3659    1.0218   -0.1402 C   0  0  0  0  0  0  0  0  0  0  0  0
    0.5465   -1.5746    0.2153 C   0  0  0  0  0  0  0  0  0  0  0  0
   -1.3008   -0.0204   -0.0514 C   0  0  0  0  0  0  0  0  0  0  0  0
    1.4828   -0.5338    0.1268 C   0  0  0  0  0  0  0  0  0  0  0  0
    1.0946   -3.3808    0.4589 Br  0  0  0  0  0  0  0  0  0  0  0  0
   -0.0162    3.3474   -0.4101 O   0  0  0  0  0  0  0  0  0  0  0  0
   -2.6229    0.3220   -0.1481 O   0  0  0  0  0  0  0  0  0  0  0  0
    2.8048   -0.8760    0.2234 O   0  0  0  0  0  0  0  0  0  0  0  0
   -3.4659   -1.4393   -0.8792 H   0  0  0  0  0  0  0  0  0  0  0  0
   -4.5780   -0.2703   -0.1567 H   0  0  0  0  0  0  0  0  0  0  0  0
   -3.5402   -1.2199    0.9140 H   0  0  0  0  0  0  0  0  0  0  0  0
    3.7218    0.6653   -0.8386 H   0  0  0  0  0  0  0  0  0  0  0  0
    4.7592   -0.2843    0.2321 H   0  0  0  0  0  0  0  0  0  0  0  0
    3.6475    0.8847    0.9545 H   0  0  0  0  0  0  0  0  0  0  0  0
    1.6953    1.6106   -0.1267 H   0  0  0  0  0  0  0  0  0  0  0  0
   -1.5123   -2.1644    0.2021 H   0  0  0  0  0  0  0  0  0  0  0  0
   -1.8995    2.6021   -0.3971 H   0  0  0  0  0  0  0  0  0  0  0  0
  1 12  1  0
  2 13  1  0
  3  6  2  0
  3  9  1  0
  4  7  1  0
  4  8  2  0
  5  6  1  0
  5 11  2  0
  6  8  1  0
  7  9  2  0
  7 10  1  0
  8 12  1  0
  9 13  1  0
  1 14  1  0
  1 15  1  0
  1 16  1  0
  2 17  1  0
  2 18  1  0
  2 19  1  0
  3 20  1  0
  4 21  1  0
  5 22  1  0
M  END
