
     RDKit          3D

 36 38  0  0  0  0  0  0  0  0999 V2000
   -0.9650    3.8942   -0.2778 C   0  0  0  0  0  0  0  0  0  0  0  0
   -2.9404   -2.1131   -0.5257 C   0  0  0  0  0  0  0  0  0  0  0  0
   -0.6867    2.6918    0.5658 C   0  0  0  0  0  0  0  0  0  0  0  0
    1.7537   -1.4402    1.4128 C   0  0  0  0  0  0  0  0  0  0  0  0
    2.8652   -2.1176    0.9238 C   0  0  0  0  0  0  0  0  0  0  0  0
   -1.5534   -0.2323   -1.4108 C   0  0  0  0  0  0  0  0  0  0  0  0
    0.8297    0.5353   -1.7105 C   0  0  0  0  0  0  0  0  0  0  0  0
   -1.4365   -0.7316    1.0295 C   0  0  0  0  0  0  0  0  0  0  0  0
   -1.9618   -0.9881   -0.3737 C   0  0  0  0  0  0  0  0  0  0  0  0
   -0.5854    0.9307   -1.2718 C   0  0  0  0  0  0  0  0  0  0  0  0
   -0.5040    1.4138    0.1666 C   0  0  0  0  0  0  0  0  0  0  0  0
    1.0581   -0.5321    0.5932 C   0  0  0  0  0  0  0  0  0  0  0  0
    1.5195   -0.3868   -0.7302 C   0  0  0  0  0  0  0  0  0  0  0  0
    3.2357   -1.8696   -0.3758 C   0  0  0  0  0  0  0  0  0  0  0  0
   -0.1949    0.2217    1.0860 C   0  0  0  0  0  0  0  0  0  0  0  0
   -0.0072    0.6734    2.4777 N   0  0  0  0  0  0  0  0  0  0  0  0
    2.6109   -1.0362   -1.2172 N   0  0  0  0  0  0  0  0  0  0  0  0
    4.3104   -2.4924   -0.9172 O   0  0  0  0  0  0  0  0  0  0  0  0
   -0.2608    4.6912   -0.0175 H   0  0  0  0  0  0  0  0  0  0  0  0
   -1.9778    4.2589   -0.0811 H   0  0  0  0  0  0  0  0  0  0  0  0
   -0.8657    3.7136   -1.3494 H   0  0  0  0  0  0  0  0  0  0  0  0
   -3.2816   -2.2235   -1.5603 H   0  0  0  0  0  0  0  0  0  0  0  0
   -2.4815   -3.0594   -0.2221 H   0  0  0  0  0  0  0  0  0  0  0  0
   -3.8212   -1.9362    0.0998 H   0  0  0  0  0  0  0  0  0  0  0  0
   -0.6373    2.9164    1.6307 H   0  0  0  0  0  0  0  0  0  0  0  0
    1.4365   -1.6368    2.4323 H   0  0  0  0  0  0  0  0  0  0  0  0
    3.4205   -2.8178    1.5353 H   0  0  0  0  0  0  0  0  0  0  0  0
   -1.9156   -0.4410   -2.4152 H   0  0  0  0  0  0  0  0  0  0  0  0
    0.7999    0.0554   -2.6970 H   0  0  0  0  0  0  0  0  0  0  0  0
    1.4489    1.4368   -1.8083 H   0  0  0  0  0  0  0  0  0  0  0  0
   -2.2643   -0.2988    1.6096 H   0  0  0  0  0  0  0  0  0  0  0  0
   -1.1896   -1.6920    1.5016 H   0  0  0  0  0  0  0  0  0  0  0  0
   -0.9538    1.7156   -1.9391 H   0  0  0  0  0  0  0  0  0  0  0  0
    0.0092   -0.1250    3.1038 H   0  0  0  0  0  0  0  0  0  0  0  0
    0.9020    1.1279    2.5436 H   0  0  0  0  0  0  0  0  0  0  0  0
    4.2842   -2.1064   -1.8114 H   0  0  0  0  0  0  0  0  0  0  0  0
  1  3  1  0
  2  9  1  0
  3 11  2  3
  4  5  2  0
  4 12  1  0
  5 14  1  0
  6  9  2  0
  6 10  1  0
  7 10  1  0
  7 13  1  0
  8  9  1  0
  8 15  1  0
 10 11  1  0
 11 15  1  0
 12 13  2  0
 12 15  1  0
 13 17  1  0
 14 17  2  0
 14 18  1  0
 15 16  1  0
  1 19  1  0
  1 20  1  0
  1 21  1  0
  2 22  1  0
  2 23  1  0
  2 24  1  0
  3 25  1  0
  4 26  1  0
  5 27  1  0
  6 28  1  0
  7 29  1  0
  7 30  1  0
  8 31  1  0
  8 32  1  0
 10 33  1  0
 16 34  1  0
 16 35  1  0
 18 36  1  0
M  END
