
     RDKit          3D

 32 35  0  0  0  0  0  0  0  0999 V2000
    4.4732   -0.4763   -0.0771 C   0  0  0  0  0  0  0  0  0  0  0  0
    3.5867   -0.0741   -1.0762 C   0  0  0  0  0  0  0  0  0  0  0  0
    3.9886   -0.8925    1.1626 C   0  0  0  0  0  0  0  0  0  0  0  0
    2.2113   -0.0783   -0.8352 C   0  0  0  0  0  0  0  0  0  0  0  0
    2.6149   -0.8983    1.4087 C   0  0  0  0  0  0  0  0  0  0  0  0
   -1.8661    2.8133   -1.0529 C   0  0  0  0  0  0  0  0  0  0  0  0
   -2.4313    1.5384   -1.1308 C   0  0  0  0  0  0  0  0  0  0  0  0
   -0.0515    1.9311    0.2743 C   0  0  0  0  0  0  0  0  0  0  0  0
   -1.5983   -1.6363    1.6936 C   0  0  0  0  0  0  0  0  0  0  0  0
   -3.4118   -1.2635   -1.3864 C   0  0  0  0  0  0  0  0  0  0  0  0
    1.7227   -0.4759    0.4160 C   0  0  0  0  0  0  0  0  0  0  0  0
   -0.6892    3.0070   -0.3384 C   0  0  0  0  0  0  0  0  0  0  0  0
   -0.5893    0.6346    0.1791 C   0  0  0  0  0  0  0  0  0  0  0  0
   -1.8148    0.4478   -0.4901 C   0  0  0  0  0  0  0  0  0  0  0  0
   -2.3919   -1.7911    0.4558 C   0  0  0  0  0  0  0  0  0  0  0  0
    0.2509   -0.4927    0.7061 C   0  0  0  0  0  0  0  0  0  0  0  0
   -0.0065    4.5810   -0.2279 Cl  0  0  0  0  0  0  0  0  0  0  0  0
   -0.1847   -1.4963    1.3871 N   0  0  0  0  0  0  0  0  0  0  0  0
   -3.8390   -2.4513   -1.0278 N   0  0  0  0  0  0  0  0  0  0  0  0
   -3.1967   -2.7849    0.1364 N   0  0  0  0  0  0  0  0  0  0  0  0
   -2.4741   -0.8039   -0.4978 N   0  0  0  0  0  0  0  0  0  0  0  0
    5.5437   -0.4778   -0.2688 H   0  0  0  0  0  0  0  0  0  0  0  0
    3.9683    0.2328   -2.0470 H   0  0  0  0  0  0  0  0  0  0  0  0
    4.6792   -1.2204    1.9355 H   0  0  0  0  0  0  0  0  0  0  0  0
    1.5374    0.2125   -1.6360 H   0  0  0  0  0  0  0  0  0  0  0  0
    2.2429   -1.2352    2.3737 H   0  0  0  0  0  0  0  0  0  0  0  0
   -2.3612    3.6540   -1.5345 H   0  0  0  0  0  0  0  0  0  0  0  0
   -3.3798    1.4404   -1.6549 H   0  0  0  0  0  0  0  0  0  0  0  0
    0.8780    2.1061    0.8135 H   0  0  0  0  0  0  0  0  0  0  0  0
   -1.7268   -2.5286    2.3167 H   0  0  0  0  0  0  0  0  0  0  0  0
   -1.9575   -0.7913    2.2933 H   0  0  0  0  0  0  0  0  0  0  0  0
   -3.7274   -0.7303   -2.2705 H   0  0  0  0  0  0  0  0  0  0  0  0
  1  2  2  0
  1  3  1  0
  2  4  1  0
  3  5  2  0
  4 11  2  0
  5 11  1  0
  6  7  2  0
  6 12  1  0
  7 14  1  0
  8 12  2  0
  8 13  1  0
  9 15  1  0
  9 18  1  0
 10 19  2  0
 10 21  1  0
 11 16  1  0
 12 17  1  0
 13 14  2  0
 13 16  1  0
 14 21  1  0
 15 20  2  0
 15 21  1  0
 16 18  2  0
 19 20  1  0
  1 22  1  0
  2 23  1  0
  3 24  1  0
  4 25  1  0
  5 26  1  0
  6 27  1  0
  7 28  1  0
  8 29  1  0
  9 30  1  0
  9 31  1  0
 10 32  1  0
M  END
