
     RDKit          3D

 32 35  0  0  0  0  0  0  0  0999 V2000
    0.4751   -2.4182   -1.0341 C   0  0  0  0  0  0  0  0  0  0  0  0
   -3.6170    0.1257    1.0242 C   0  0  0  0  0  0  0  0  0  0  0  0
    3.1374    1.4119    1.2841 C   0  0  0  0  0  0  0  0  0  0  0  0
   -3.1377   -1.1758    1.1658 C   0  0  0  0  0  0  0  0  0  0  0  0
    2.9630    0.1021    1.7667 C   0  0  0  0  0  0  0  0  0  0  0  0
   -2.8764    1.0710    0.3176 C   0  0  0  0  0  0  0  0  0  0  0  0
    2.3884    1.8824    0.2034 C   0  0  0  0  0  0  0  0  0  0  0  0
   -1.9146   -1.5448    0.6000 C   0  0  0  0  0  0  0  0  0  0  0  0
    2.0369   -0.7626    1.1768 C   0  0  0  0  0  0  0  0  0  0  0  0
   -0.8456    1.7491   -1.0380 C   0  0  0  0  0  0  0  0  0  0  0  0
   -1.6481    0.7152   -0.2520 C   0  0  0  0  0  0  0  0  0  0  0  0
    1.4816    1.0156   -0.3753 C   0  0  0  0  0  0  0  0  0  0  0  0
   -1.1569   -0.6136   -0.1236 C   0  0  0  0  0  0  0  0  0  0  0  0
    1.3065   -0.2926    0.1003 C   0  0  0  0  0  0  0  0  0  0  0  0
    0.5265    1.2178   -1.5219 C   0  0  0  0  0  0  0  0  0  0  0  0
    0.2163   -0.9379   -0.7390 C   0  0  0  0  0  0  0  0  0  0  0  0
    0.3197   -0.1691   -2.0308 N   0  0  0  0  0  0  0  0  0  0  0  0
   -0.3007   -2.8368   -1.6860 H   0  0  0  0  0  0  0  0  0  0  0  0
    1.4429   -2.5670   -1.5291 H   0  0  0  0  0  0  0  0  0  0  0  0
    0.4993   -3.0199   -0.1185 H   0  0  0  0  0  0  0  0  0  0  0  0
   -4.5699    0.4039    1.4663 H   0  0  0  0  0  0  0  0  0  0  0  0
    3.8605    2.0669    1.7648 H   0  0  0  0  0  0  0  0  0  0  0  0
   -3.7184   -1.9074    1.7218 H   0  0  0  0  0  0  0  0  0  0  0  0
    3.5515   -0.2377    2.6159 H   0  0  0  0  0  0  0  0  0  0  0  0
   -3.2585    2.0830    0.2115 H   0  0  0  0  0  0  0  0  0  0  0  0
    2.5169    2.8950   -0.1631 H   0  0  0  0  0  0  0  0  0  0  0  0
   -1.5683   -2.5644    0.7390 H   0  0  0  0  0  0  0  0  0  0  0  0
    1.8941   -1.7652    1.5648 H   0  0  0  0  0  0  0  0  0  0  0  0
   -0.7057    2.6422   -0.4167 H   0  0  0  0  0  0  0  0  0  0  0  0
   -1.4432    2.0299   -1.9148 H   0  0  0  0  0  0  0  0  0  0  0  0
    0.9585    1.8594   -2.2964 H   0  0  0  0  0  0  0  0  0  0  0  0
    1.1856   -0.4579   -2.4838 H   0  0  0  0  0  0  0  0  0  0  0  0
  1 16  1  0
  2  4  2  0
  2  6  1  0
  3  5  2  0
  3  7  1  0
  4  8  1  0
  5  9  1  0
  6 11  2  0
  7 12  2  0
  8 13  2  0
  9 14  2  0
 10 11  1  0
 10 15  1  0
 11 13  1  0
 12 14  1  0
 12 15  1  0
 13 16  1  0
 14 16  1  0
 15 17  1  0
 16 17  1  0
  1 18  1  0
  1 19  1  0
  1 20  1  0
  2 21  1  0
  3 22  1  0
  4 23  1  0
  5 24  1  0
  6 25  1  0
  7 26  1  0
  8 27  1  0
  9 28  1  0
 10 29  1  0
 10 30  1  0
 15 31  1  0
 17 32  1  0
M  END
