
     RDKit          3D

 43 44  0  0  0  0  0  0  0  0999 V2000
   -3.2920   -1.4992   -1.0490 C   0  0  0  0  0  0  0  0  0  0  0  0
   -3.1941   -1.3689    1.3312 C   0  0  0  0  0  0  0  0  0  0  0  0
   -2.1978    2.8764   -0.1378 C   0  0  0  0  0  0  0  0  0  0  0  0
   -2.3581    1.9651   -1.3512 C   0  0  0  0  0  0  0  0  0  0  0  0
   -2.2543    2.1035    1.1766 C   0  0  0  0  0  0  0  0  0  0  0  0
    3.5369    0.6077   -0.2492 C   0  0  0  0  0  0  0  0  0  0  0  0
    4.8210    1.1528   -0.3317 C   0  0  0  0  0  0  0  0  0  0  0  0
   -1.3763    0.7904   -1.3037 C   0  0  0  0  0  0  0  0  0  0  0  0
   -1.2744    0.9262    1.1772 C   0  0  0  0  0  0  0  0  0  0  0  0
    4.4831   -1.6175   -0.1663 C   0  0  0  0  0  0  0  0  0  0  0  0
   -0.4032   -1.1747    0.0102 C   0  0  0  0  0  0  0  0  0  0  0  0
    3.3602   -0.7801   -0.1660 C   0  0  0  0  0  0  0  0  0  0  0  0
    5.9394    0.3153   -0.3318 C   0  0  0  0  0  0  0  0  0  0  0  0
    5.7690   -1.0718   -0.2489 C   0  0  0  0  0  0  0  0  0  0  0  0
    1.9824   -1.3219   -0.0797 C   0  0  0  0  0  0  0  0  0  0  0  0
   -1.5174   -0.0689   -0.0046 C   0  0  0  0  0  0  0  0  0  0  0  0
    7.4970    1.0546   -0.4362 Cl  0  0  0  0  0  0  0  0  0  0  0  0
    7.1063   -2.1674   -0.2439 Cl  0  0  0  0  0  0  0  0  0  0  0  0
    0.9350   -0.5859   -0.0770 N   0  0  0  0  0  0  0  0  0  0  0  0
   -2.9006   -0.6567    0.0845 N   0  0  0  0  0  0  0  0  0  0  0  0
    1.9712   -2.6634   -0.0058 O   0  0  0  0  0  0  0  0  0  0  0  0
   -2.6850   -2.4066   -1.1284 H   0  0  0  0  0  0  0  0  0  0  0  0
   -4.3384   -1.8114   -0.9455 H   0  0  0  0  0  0  0  0  0  0  0  0
   -3.2506   -0.9621   -1.9999 H   0  0  0  0  0  0  0  0  0  0  0  0
   -4.2441   -1.6858    1.3483 H   0  0  0  0  0  0  0  0  0  0  0  0
   -2.5787   -2.2650    1.4590 H   0  0  0  0  0  0  0  0  0  0  0  0
   -3.0776   -0.7316    2.2113 H   0  0  0  0  0  0  0  0  0  0  0  0
   -2.9759    3.6480   -0.1481 H   0  0  0  0  0  0  0  0  0  0  0  0
   -1.2348    3.3979   -0.2060 H   0  0  0  0  0  0  0  0  0  0  0  0
   -3.3895    1.5981   -1.4039 H   0  0  0  0  0  0  0  0  0  0  0  0
   -2.1861    2.5458   -2.2649 H   0  0  0  0  0  0  0  0  0  0  0  0
   -2.0107    2.7795    2.0045 H   0  0  0  0  0  0  0  0  0  0  0  0
   -3.2762    1.7491    1.3532 H   0  0  0  0  0  0  0  0  0  0  0  0
    2.6745    1.2728   -0.2501 H   0  0  0  0  0  0  0  0  0  0  0  0
    4.9399    2.2321   -0.3957 H   0  0  0  0  0  0  0  0  0  0  0  0
   -1.4854    0.1773   -2.2049 H   0  0  0  0  0  0  0  0  0  0  0  0
   -0.3616    1.2069   -1.3644 H   0  0  0  0  0  0  0  0  0  0  0  0
   -1.3066    0.4155    2.1458 H   0  0  0  0  0  0  0  0  0  0  0  0
   -0.2599    1.3423    1.1090 H   0  0  0  0  0  0  0  0  0  0  0  0
    4.3633   -2.6964   -0.1023 H   0  0  0  0  0  0  0  0  0  0  0  0
   -0.4745   -1.7553    0.9369 H   0  0  0  0  0  0  0  0  0  0  0  0
   -0.5474   -1.8525   -0.8388 H   0  0  0  0  0  0  0  0  0  0  0  0
    1.0719   -3.0141    0.0503 H   0  0  0  0  0  0  0  0  0  0  0  0
  1 20  1  0
  2 20  1  0
  3  4  1  0
  3  5  1  0
  4  8  1  0
  5  9  1  0
  6  7  2  0
  6 12  1  0
  7 13  1  0
  8 16  1  0
  9 16  1  0
 10 12  2  0
 10 14  1  0
 11 16  1  0
 11 19  1  0
 12 15  1  0
 13 14  2  0
 13 17  1  0
 14 18  1  0
 15 19  2  3
 15 21  1  0
 16 20  1  0
  1 22  1  0
  1 23  1  0
  1 24  1  0
  2 25  1  0
  2 26  1  0
  2 27  1  0
  3 28  1  0
  3 29  1  0
  4 30  1  0
  4 31  1  0
  5 32  1  0
  5 33  1  0
  6 34  1  0
  7 35  1  0
  8 36  1  0
  8 37  1  0
  9 38  1  0
  9 39  1  0
 10 40  1  0
 11 41  1  0
 11 42  1  0
 21 43  1  0
M  END
