
     RDKit          3D

 42 42  0  0  0  0  0  0  0  0999 V2000
   -2.9356   -1.9603   -0.0672 C   0  0  0  0  0  0  0  0  0  0  0  0
   -0.7747   -3.2147   -0.0589 C   0  0  0  0  0  0  0  0  0  0  0  0
    1.7459    0.9736   -1.9028 C   0  0  0  0  0  0  0  0  0  0  0  0
    3.8055   -0.5180   -0.1596 C   0  0  0  0  0  0  0  0  0  0  0  0
    3.0129    0.8993    1.6141 C   0  0  0  0  0  0  0  0  0  0  0  0
   -2.5898    3.0574    1.0164 C   0  0  0  0  0  0  0  0  0  0  0  0
   -1.9290    2.2024    1.8911 C   0  0  0  0  0  0  0  0  0  0  0  0
   -2.6590    2.7415   -0.3364 C   0  0  0  0  0  0  0  0  0  0  0  0
   -1.3370    1.0314    1.4119 C   0  0  0  0  0  0  0  0  0  0  0  0
   -2.0673    1.5701   -0.8190 C   0  0  0  0  0  0  0  0  0  0  0  0
    0.8071   -0.6099   -0.0884 C   0  0  0  0  0  0  0  0  0  0  0  0
   -0.8380   -0.8137   -1.9319 C   0  0  0  0  0  0  0  0  0  0  0  0
   -1.4310   -1.8565    0.2473 C   0  0  0  0  0  0  0  0  0  0  0  0
    1.6354    0.6718   -0.4021 C   0  0  0  0  0  0  0  0  0  0  0  0
   -1.3905    0.6879    0.0444 C   0  0  0  0  0  0  0  0  0  0  0  0
   -0.7224   -0.6159   -0.4580 C   0  0  0  0  0  0  0  0  0  0  0  0
   -0.9272   -0.9853   -3.0775 N   0  0  0  0  0  0  0  0  0  0  0  0
    3.0037    0.6573    0.1722 N   0  0  0  0  0  0  0  0  0  0  0  0
   -3.1177   -2.1471   -1.1302 H   0  0  0  0  0  0  0  0  0  0  0  0
   -3.3859   -2.7877    0.4930 H   0  0  0  0  0  0  0  0  0  0  0  0
   -3.4746   -1.0526    0.2192 H   0  0  0  0  0  0  0  0  0  0  0  0
    0.2609   -3.2496    0.2913 H   0  0  0  0  0  0  0  0  0  0  0  0
   -0.7869   -3.4439   -1.1289 H   0  0  0  0  0  0  0  0  0  0  0  0
   -1.3079   -4.0220    0.4562 H   0  0  0  0  0  0  0  0  0  0  0  0
    0.7894    1.3199   -2.3048 H   0  0  0  0  0  0  0  0  0  0  0  0
    2.4639    1.7813   -2.0893 H   0  0  0  0  0  0  0  0  0  0  0  0
    2.0660    0.0987   -2.4774 H   0  0  0  0  0  0  0  0  0  0  0  0
    4.8417   -0.3714    0.1665 H   0  0  0  0  0  0  0  0  0  0  0  0
    3.8483   -0.6857   -1.2401 H   0  0  0  0  0  0  0  0  0  0  0  0
    3.4323   -1.4295    0.3196 H   0  0  0  0  0  0  0  0  0  0  0  0
    2.4751    1.8218    1.8591 H   0  0  0  0  0  0  0  0  0  0  0  0
    4.0400    1.0379    1.9708 H   0  0  0  0  0  0  0  0  0  0  0  0
    2.5665    0.0771    2.1827 H   0  0  0  0  0  0  0  0  0  0  0  0
   -3.0504    3.9693    1.3872 H   0  0  0  0  0  0  0  0  0  0  0  0
   -1.8726    2.4468    2.9490 H   0  0  0  0  0  0  0  0  0  0  0  0
   -3.1753    3.4083   -1.0231 H   0  0  0  0  0  0  0  0  0  0  0  0
   -0.8262    0.3913    2.1283 H   0  0  0  0  0  0  0  0  0  0  0  0
   -2.1539    1.3737   -1.8863 H   0  0  0  0  0  0  0  0  0  0  0  0
    0.8895   -0.8121    0.9872 H   0  0  0  0  0  0  0  0  0  0  0  0
    1.2914   -1.4575   -0.5917 H   0  0  0  0  0  0  0  0  0  0  0  0
   -1.3516   -1.7272    1.3353 H   0  0  0  0  0  0  0  0  0  0  0  0
    1.1289    1.5420    0.0310 H   0  0  0  0  0  0  0  0  0  0  0  0
  1 13  1  0
  2 13  1  0
  3 14  1  0
  4 18  1  0
  5 18  1  0
  6  7  2  0
  6  8  1  0
  7  9  1  0
  8 10  2  0
  9 15  2  0
 10 15  1  0
 11 14  1  0
 11 16  1  0
 12 16  1  0
 12 17  3  0
 13 16  1  0
 14 18  1  0
 15 16  1  0
  1 19  1  0
  1 20  1  0
  1 21  1  0
  2 22  1  0
  2 23  1  0
  2 24  1  0
  3 25  1  0
  3 26  1  0
  3 27  1  0
  4 28  1  0
  4 29  1  0
  4 30  1  0
  5 31  1  0
  5 32  1  0
  5 33  1  0
  6 34  1  0
  7 35  1  0
  8 36  1  0
  9 37  1  0
 10 38  1  0
 11 39  1  0
 11 40  1  0
 13 41  1  0
 14 42  1  0
M  END
