
     RDKit          3D

 32 32  0  0  0  0  0  0  0  0999 V2000
   -2.1086   -3.2820    0.6995 C   0  0  0  0  0  0  0  0  0  0  0  0
   -0.0380    3.5638    0.2105 C   0  0  0  0  0  0  0  0  0  0  0  0
   -3.7339    0.8737   -0.5684 C   0  0  0  0  0  0  0  0  0  0  0  0
    2.3305   -0.9620   -0.6633 C   0  0  0  0  0  0  0  0  0  0  0  0
    3.3450   -0.7411    0.4694 C   0  0  0  0  0  0  0  0  0  0  0  0
   -0.0758   -1.4600   -0.0548 C   0  0  0  0  0  0  0  0  0  0  0  0
    0.6102    0.8547   -0.2761 C   0  0  0  0  0  0  0  0  0  0  0  0
    0.9258   -0.5124   -0.3250 C   0  0  0  0  0  0  0  0  0  0  0  0
   -1.3783   -1.0562    0.2519 C   0  0  0  0  0  0  0  0  0  0  0  0
   -0.6824    1.2813    0.0374 C   0  0  0  0  0  0  0  0  0  0  0  0
   -1.6755    0.3169    0.2732 C   0  0  0  0  0  0  0  0  0  0  0  0
    3.8237    0.6407    0.5448 N   0  0  0  0  0  0  0  0  0  0  0  0
   -2.4193   -1.9076    0.5214 O   0  0  0  0  0  0  0  0  0  0  0  0
   -1.0727    2.5943    0.1096 O   0  0  0  0  0  0  0  0  0  0  0  0
   -2.9481    0.7250    0.6123 O   0  0  0  0  0  0  0  0  0  0  0  0
   -3.0260   -3.7956    1.0029 H   0  0  0  0  0  0  0  0  0  0  0  0
   -1.7716   -3.7323   -0.2397 H   0  0  0  0  0  0  0  0  0  0  0  0
   -1.3694   -3.4243    1.4949 H   0  0  0  0  0  0  0  0  0  0  0  0
    0.5001    3.6599   -0.7380 H   0  0  0  0  0  0  0  0  0  0  0  0
    0.6477    3.3364    1.0338 H   0  0  0  0  0  0  0  0  0  0  0  0
   -0.5056    4.5296    0.4249 H   0  0  0  0  0  0  0  0  0  0  0  0
   -4.7370    1.1880   -0.2648 H   0  0  0  0  0  0  0  0  0  0  0  0
   -3.8274   -0.0747   -1.1090 H   0  0  0  0  0  0  0  0  0  0  0  0
   -3.3242    1.6465   -1.2280 H   0  0  0  0  0  0  0  0  0  0  0  0
    2.6587   -0.4644   -1.5852 H   0  0  0  0  0  0  0  0  0  0  0  0
    2.3128   -2.0334   -0.9021 H   0  0  0  0  0  0  0  0  0  0  0  0
    2.9127   -1.0280    1.4346 H   0  0  0  0  0  0  0  0  0  0  0  0
    4.2138   -1.3862    0.2958 H   0  0  0  0  0  0  0  0  0  0  0  0
    0.1845   -2.5126   -0.0959 H   0  0  0  0  0  0  0  0  0  0  0  0
    1.3990    1.5705   -0.4866 H   0  0  0  0  0  0  0  0  0  0  0  0
    4.3414    0.8693   -0.3029 H   0  0  0  0  0  0  0  0  0  0  0  0
    4.4877    0.7221    1.3144 H   0  0  0  0  0  0  0  0  0  0  0  0
  1 13  1  0
  2 14  1  0
  3 15  1  0
  4  5  1  0
  4  8  1  0
  5 12  1  0
  6  8  2  0
  6  9  1  0
  7  8  1  0
  7 10  2  0
  9 11  2  0
  9 13  1  0
 10 11  1  0
 10 14  1  0
 11 15  1  0
  1 16  1  0
  1 17  1  0
  1 18  1  0
  2 19  1  0
  2 20  1  0
  2 21  1  0
  3 22  1  0
  3 23  1  0
  3 24  1  0
  4 25  1  0
  4 26  1  0
  5 27  1  0
  5 28  1  0
  6 29  1  0
  7 30  1  0
 12 31  1  0
 12 32  1  0
M  END
