
     RDKit          3D

 41 42  0  0  0  0  0  0  0  0999 V2000
   -2.2431   -3.3562    0.9332 C   0  0  0  0  0  0  0  0  0  0  0  0
   -4.5991    3.5473   -0.3282 C   0  0  0  0  0  0  0  0  0  0  0  0
    5.8511   -0.0695   -1.5377 C   0  0  0  0  0  0  0  0  0  0  0  0
    6.6071    0.0244   -0.3698 C   0  0  0  0  0  0  0  0  0  0  0  0
    4.4715   -0.2802   -1.4655 C   0  0  0  0  0  0  0  0  0  0  0  0
    5.9827   -0.0936    0.8704 C   0  0  0  0  0  0  0  0  0  0  0  0
   -0.5402    0.4610    0.4595 C   0  0  0  0  0  0  0  0  0  0  0  0
    0.1462    0.1068   -0.8690 C   0  0  0  0  0  0  0  0  0  0  0  0
   -2.8760    1.3576    0.1420 C   0  0  0  0  0  0  0  0  0  0  0  0
   -3.9874   -1.1812    0.4580 C   0  0  0  0  0  0  0  0  0  0  0  0
    2.3441   -0.6437   -0.1358 C   0  0  0  0  0  0  0  0  0  0  0  0
   -2.0398    0.2512    0.3898 C   0  0  0  0  0  0  0  0  0  0  0  0
    3.8288   -0.3926   -0.2224 C   0  0  0  0  0  0  0  0  0  0  0  0
    4.6070   -0.3026    0.9349 C   0  0  0  0  0  0  0  0  0  0  0  0
   -4.8082   -0.0705    0.2176 C   0  0  0  0  0  0  0  0  0  0  0  0
   -2.6029   -1.0279    0.5429 C   0  0  0  0  0  0  0  0  0  0  0  0
   -4.2636    1.2111    0.0560 C   0  0  0  0  0  0  0  0  0  0  0  0
    4.0332   -0.4184    2.1415 F   0  0  0  0  0  0  0  0  0  0  0  0
   -6.8823   -0.4138    0.1086 I   0  0  0  0  0  0  0  0  0  0  0  0
    1.5900    0.3682   -0.8817 N   0  0  0  0  0  0  0  0  0  0  0  0
   -1.7146   -2.0465    0.7667 O   0  0  0  0  0  0  0  0  0  0  0  0
   -5.1358    2.2397   -0.1802 O   0  0  0  0  0  0  0  0  0  0  0  0
   -2.7616   -3.6901    0.0285 H   0  0  0  0  0  0  0  0  0  0  0  0
   -2.8977   -3.4095    1.8092 H   0  0  0  0  0  0  0  0  0  0  0  0
   -1.4026   -4.0356    1.1044 H   0  0  0  0  0  0  0  0  0  0  0  0
   -4.0837    3.8685    0.5829 H   0  0  0  0  0  0  0  0  0  0  0  0
   -5.4343    4.2340   -0.4967 H   0  0  0  0  0  0  0  0  0  0  0  0
   -3.9393    3.6065   -1.2000 H   0  0  0  0  0  0  0  0  0  0  0  0
    6.3341    0.0201   -2.5078 H   0  0  0  0  0  0  0  0  0  0  0  0
    7.6801    0.1874   -0.4270 H   0  0  0  0  0  0  0  0  0  0  0  0
    3.8903   -0.3520   -2.3834 H   0  0  0  0  0  0  0  0  0  0  0  0
    6.5576   -0.0263    1.7884 H   0  0  0  0  0  0  0  0  0  0  0  0
   -0.1343   -0.1300    1.2888 H   0  0  0  0  0  0  0  0  0  0  0  0
   -0.3301    1.5075    0.7168 H   0  0  0  0  0  0  0  0  0  0  0  0
   -0.2969    0.7193   -1.6645 H   0  0  0  0  0  0  0  0  0  0  0  0
   -0.0524   -0.9335   -1.1547 H   0  0  0  0  0  0  0  0  0  0  0  0
   -2.4096    2.3301    0.0171 H   0  0  0  0  0  0  0  0  0  0  0  0
   -4.4491   -2.1558    0.5740 H   0  0  0  0  0  0  0  0  0  0  0  0
    2.1494   -1.6437   -0.5427 H   0  0  0  0  0  0  0  0  0  0  0  0
    2.0296   -0.6513    0.9131 H   0  0  0  0  0  0  0  0  0  0  0  0
    1.7819    1.2837   -0.4771 H   0  0  0  0  0  0  0  0  0  0  0  0
  1 21  1  0
  2 22  1  0
  3  4  2  0
  3  5  1  0
  4  6  1  0
  5 13  2  0
  6 14  2  0
  7  8  1  0
  7 12  1  0
  8 20  1  0
  9 12  2  0
  9 17  1  0
 10 15  1  0
 10 16  2  0
 11 13  1  0
 11 20  1  0
 12 16  1  0
 13 14  1  0
 14 18  1  0
 15 17  2  0
 15 19  1  0
 16 21  1  0
 17 22  1  0
  1 23  1  0
  1 24  1  0
  1 25  1  0
  2 26  1  0
  2 27  1  0
  2 28  1  0
  3 29  1  0
  4 30  1  0
  5 31  1  0
  6 32  1  0
  7 33  1  0
  7 34  1  0
  8 35  1  0
  8 36  1  0
  9 37  1  0
 10 38  1  0
 11 39  1  0
 11 40  1  0
 20 41  1  0
M  END
