
     RDKit          3D

 43 45  0  0  0  0  0  0  0  0999 V2000
   -2.7069    2.9409    1.9843 C   0  0  0  0  0  0  0  0  0  0  0  0
   -2.2667    2.0181    0.8571 C   0  0  0  0  0  0  0  0  0  0  0  0
   -4.0750   -2.0213   -0.9733 C   0  0  0  0  0  0  0  0  0  0  0  0
   -3.0734   -2.2208   -2.1024 C   0  0  0  0  0  0  0  0  0  0  0  0
   -1.5582    0.7723    1.4048 C   0  0  0  0  0  0  0  0  0  0  0  0
    1.8147   -0.3468    1.2197 C   0  0  0  0  0  0  0  0  0  0  0  0
    3.1542   -0.5384    1.5808 C   0  0  0  0  0  0  0  0  0  0  0  0
    5.0613    0.5487   -1.3390 C   0  0  0  0  0  0  0  0  0  0  0  0
   -3.2863   -1.3589    0.1454 C   0  0  0  0  0  0  0  0  0  0  0  0
   -1.7653   -1.6435   -1.5824 C   0  0  0  0  0  0  0  0  0  0  0  0
    6.0721    0.4248   -0.1973 C   0  0  0  0  0  0  0  0  0  0  0  0
    2.4975    0.5215   -0.9499 C   0  0  0  0  0  0  0  0  0  0  0  0
    3.8156    0.3345   -0.5703 C   0  0  0  0  0  0  0  0  0  0  0  0
    1.4756    0.1792   -0.0452 C   0  0  0  0  0  0  0  0  0  0  0  0
   -1.0961   -0.2375    0.3281 C   0  0  0  0  0  0  0  0  0  0  0  0
    4.1290   -0.1861    0.6725 C   0  0  0  0  0  0  0  0  0  0  0  0
    0.0580    0.3969   -0.4866 C   0  0  0  0  0  0  0  0  0  0  0  0
   -2.1969   -0.6814   -0.5622 N   0  0  0  0  0  0  0  0  0  0  0  0
   -0.1291    1.0849   -1.4923 O   0  0  0  0  0  0  0  0  0  0  0  0
    5.4743   -0.3241    0.8886 O   0  0  0  0  0  0  0  0  0  0  0  0
   -3.4077    2.4338    2.6551 H   0  0  0  0  0  0  0  0  0  0  0  0
   -1.8482    3.2778    2.5737 H   0  0  0  0  0  0  0  0  0  0  0  0
   -3.2068    3.8251    1.5764 H   0  0  0  0  0  0  0  0  0  0  0  0
   -1.5978    2.5737    0.1914 H   0  0  0  0  0  0  0  0  0  0  0  0
   -3.1479    1.7353    0.2716 H   0  0  0  0  0  0  0  0  0  0  0  0
   -4.8901   -1.3707   -1.3119 H   0  0  0  0  0  0  0  0  0  0  0  0
   -4.5156   -2.9692   -0.6483 H   0  0  0  0  0  0  0  0  0  0  0  0
   -3.4094   -1.6819   -2.9960 H   0  0  0  0  0  0  0  0  0  0  0  0
   -2.9669   -3.2774   -2.3680 H   0  0  0  0  0  0  0  0  0  0  0  0
   -0.6906    1.1013    1.9904 H   0  0  0  0  0  0  0  0  0  0  0  0
   -2.2228    0.2645    2.1151 H   0  0  0  0  0  0  0  0  0  0  0  0
    1.0584   -0.6086    1.9528 H   0  0  0  0  0  0  0  0  0  0  0  0
    3.4233   -0.9447    2.5500 H   0  0  0  0  0  0  0  0  0  0  0  0
    5.1181    1.5238   -1.8293 H   0  0  0  0  0  0  0  0  0  0  0  0
    5.1959   -0.2511   -2.0741 H   0  0  0  0  0  0  0  0  0  0  0  0
   -3.9196   -0.6676    0.7094 H   0  0  0  0  0  0  0  0  0  0  0  0
   -2.9047   -2.1243    0.8331 H   0  0  0  0  0  0  0  0  0  0  0  0
   -1.1561   -2.4452   -1.1455 H   0  0  0  0  0  0  0  0  0  0  0  0
   -1.1981   -1.1789   -2.3944 H   0  0  0  0  0  0  0  0  0  0  0  0
    6.9879   -0.0793   -0.5232 H   0  0  0  0  0  0  0  0  0  0  0  0
    6.3503    1.4124    0.1926 H   0  0  0  0  0  0  0  0  0  0  0  0
    2.2603    0.9194   -1.9338 H   0  0  0  0  0  0  0  0  0  0  0  0
   -0.7101   -1.1311    0.8325 H   0  0  0  0  0  0  0  0  0  0  0  0
  1  2  1  0
  2  5  1  0
  3  4  1  0
  3  9  1  0
  4 10  1  0
  5 15  1  0
  6  7  2  0
  6 14  1  0
  7 16  1  0
  8 11  1  0
  8 13  1  0
  9 18  1  0
 10 18  1  0
 11 20  1  0
 12 13  1  0
 12 14  2  0
 13 16  2  0
 14 17  1  0
 15 17  1  0
 15 18  1  0
 16 20  1  0
 17 19  2  0
  1 21  1  0
  1 22  1  0
  1 23  1  0
  2 24  1  0
  2 25  1  0
  3 26  1  0
  3 27  1  0
  4 28  1  0
  4 29  1  0
  5 30  1  0
  5 31  1  0
  6 32  1  0
  7 33  1  0
  8 34  1  0
  8 35  1  0
  9 36  1  0
  9 37  1  0
 10 38  1  0
 10 39  1  0
 11 40  1  0
 11 41  1  0
 12 42  1  0
 15 43  1  0
M  END
