
     RDKit          3D

 38 41  0  0  0  0  0  0  0  0999 V2000
    5.5855   -0.8512   -0.4013 C   0  0  0  0  0  0  0  0  0  0  0  0
    5.1063    0.4558   -0.4725 C   0  0  0  0  0  0  0  0  0  0  0  0
    4.6950   -1.9112   -0.2470 C   0  0  0  0  0  0  0  0  0  0  0  0
    3.7336    0.7097   -0.3902 C   0  0  0  0  0  0  0  0  0  0  0  0
    3.3228   -1.6657   -0.1641 C   0  0  0  0  0  0  0  0  0  0  0  0
   -2.7690   -1.1264    1.2839 C   0  0  0  0  0  0  0  0  0  0  0  0
   -2.0033   -2.6169   -0.4649 C   0  0  0  0  0  0  0  0  0  0  0  0
   -3.8858   -1.9410    1.4854 C   0  0  0  0  0  0  0  0  0  0  0  0
   -3.1205   -3.4298   -0.2620 C   0  0  0  0  0  0  0  0  0  0  0  0
    0.7584    1.0738   -0.2017 C   0  0  0  0  0  0  0  0  0  0  0  0
   -1.8242   -1.4532    0.2991 C   0  0  0  0  0  0  0  0  0  0  0  0
   -4.0519   -3.0824    0.7092 C   0  0  0  0  0  0  0  0  0  0  0  0
    2.8314   -0.3524   -0.2358 C   0  0  0  0  0  0  0  0  0  0  0  0
   -0.5933    0.8058   -0.0816 C   0  0  0  0  0  0  0  0  0  0  0  0
   -0.6520   -0.6082    0.0789 C   0  0  0  0  0  0  0  0  0  0  0  0
   -1.7278    1.7697   -0.1118 C   0  0  0  0  0  0  0  0  0  0  0  0
   -1.5795    2.8552   -1.1279 C   0  0  0  0  0  0  0  0  0  0  0  0
   -1.6151    3.7836    0.6919 C   0  0  0  0  0  0  0  0  0  0  0  0
   -5.1235   -3.8617    0.9045 F   0  0  0  0  0  0  0  0  0  0  0  0
   -1.7432    2.5788    1.1413 N   0  0  0  0  0  0  0  0  0  0  0  0
   -1.5144    4.0392   -0.6384 N   0  0  0  0  0  0  0  0  0  0  0  0
    0.5658   -1.1587   -0.0065 N   0  0  0  0  0  0  0  0  0  0  0  0
    1.4283   -0.1258   -0.1492 N   0  0  0  0  0  0  0  0  0  0  0  0
   -1.5317    2.6211   -2.4295 O   0  0  0  0  0  0  0  0  0  0  0  0
   -1.5746    4.8388    1.5002 O   0  0  0  0  0  0  0  0  0  0  0  0
    6.6534   -1.0439   -0.4652 H   0  0  0  0  0  0  0  0  0  0  0  0
    5.8042    1.2811   -0.5919 H   0  0  0  0  0  0  0  0  0  0  0  0
    5.0662   -2.9313   -0.1899 H   0  0  0  0  0  0  0  0  0  0  0  0
    3.4076    1.7430   -0.4491 H   0  0  0  0  0  0  0  0  0  0  0  0
    2.6466   -2.5103   -0.0420 H   0  0  0  0  0  0  0  0  0  0  0  0
   -2.6337   -0.2482    1.9120 H   0  0  0  0  0  0  0  0  0  0  0  0
   -1.2678   -2.8928   -1.2183 H   0  0  0  0  0  0  0  0  0  0  0  0
   -4.6199   -1.6972    2.2466 H   0  0  0  0  0  0  0  0  0  0  0  0
   -3.2645   -4.3301   -0.8503 H   0  0  0  0  0  0  0  0  0  0  0  0
    1.2745    2.0133   -0.3253 H   0  0  0  0  0  0  0  0  0  0  0  0
   -2.6998    1.2881   -0.2543 H   0  0  0  0  0  0  0  0  0  0  0  0
   -1.4337    3.4715   -2.8913 H   0  0  0  0  0  0  0  0  0  0  0  0
   -1.6506    4.5099    2.4091 H   0  0  0  0  0  0  0  0  0  0  0  0
  1  2  2  0
  1  3  1  0
  2  4  1  0
  3  5  2  0
  4 13  2  0
  5 13  1  0
  6  8  2  0
  6 11  1  0
  7  9  1  0
  7 11  2  0
  8 12  1  0
  9 12  2  0
 10 14  2  0
 10 23  1  0
 11 15  1  0
 12 19  1  0
 13 23  1  0
 14 15  1  0
 14 16  1  0
 15 22  2  0
 16 17  1  0
 16 20  1  0
 17 21  2  0
 17 24  1  0
 18 20  2  0
 18 21  1  0
 18 25  1  0
 22 23  1  0
  1 26  1  0
  2 27  1  0
  3 28  1  0
  4 29  1  0
  5 30  1  0
  6 31  1  0
  7 32  1  0
  8 33  1  0
  9 34  1  0
 10 35  1  0
 16 36  1  0
 24 37  1  0
 25 38  1  0
M  END
