
     RDKit          3D

 42 44  0  0  0  0  0  0  0  0999 V2000
   -4.4131   -1.0051    0.5644 C   0  0  0  0  0  0  0  0  0  0  0  0
   -2.9252   -2.7855    0.0303 C   0  0  0  0  0  0  0  0  0  0  0  0
   -0.2340    3.9938    1.5004 C   0  0  0  0  0  0  0  0  0  0  0  0
    1.0614    3.4913    1.5048 C   0  0  0  0  0  0  0  0  0  0  0  0
    2.9707    0.2075   -2.6131 C   0  0  0  0  0  0  0  0  0  0  0  0
   -1.2947    3.1691    1.1321 C   0  0  0  0  0  0  0  0  0  0  0  0
    1.8563    0.3895   -1.7908 C   0  0  0  0  0  0  0  0  0  0  0  0
    3.9842   -0.6714   -2.2342 C   0  0  0  0  0  0  0  0  0  0  0  0
    1.2956    2.1698    1.1249 C   0  0  0  0  0  0  0  0  0  0  0  0
    2.7565   -1.1884   -0.1938 C   0  0  0  0  0  0  0  0  0  0  0  0
   -2.2617    0.9793    0.3875 C   0  0  0  0  0  0  0  0  0  0  0  0
   -0.6958   -0.8150   -0.3278 C   0  0  0  0  0  0  0  0  0  0  0  0
   -1.0725    1.8315    0.7624 C   0  0  0  0  0  0  0  0  0  0  0  0
    1.7356   -0.3008   -0.5715 C   0  0  0  0  0  0  0  0  0  0  0  0
    3.8729   -1.3677   -1.0246 C   0  0  0  0  0  0  0  0  0  0  0  0
   -1.9992   -0.5473    0.4508 C   0  0  0  0  0  0  0  0  0  0  0  0
    0.2397    1.3311    0.7204 C   0  0  0  0  0  0  0  0  0  0  0  0
    0.5128   -0.1133    0.3270 C   0  0  0  0  0  0  0  0  0  0  0  0
   -3.1430   -1.3379   -0.0940 N   0  0  0  0  0  0  0  0  0  0  0  0
    4.9362   -2.2966   -0.6214 N   0  0  0  0  0  4  0  0  0  0  0  0
    4.7968   -2.9027    0.4510 O   0  0  0  0  0  1  0  0  0  0  0  0
    5.9117   -2.4211   -1.3758 O   0  0  0  0  0  0  0  0  0  0  0  0
   -5.2234   -1.6451    0.1952 H   0  0  0  0  0  0  0  0  0  0  0  0
   -4.3548   -1.1216    1.6525 H   0  0  0  0  0  0  0  0  0  0  0  0
   -4.7272    0.0169    0.3312 H   0  0  0  0  0  0  0  0  0  0  0  0
   -2.7096   -3.0817    1.0630 H   0  0  0  0  0  0  0  0  0  0  0  0
   -2.1118   -3.1282   -0.6150 H   0  0  0  0  0  0  0  0  0  0  0  0
   -3.8084   -3.3420   -0.3058 H   0  0  0  0  0  0  0  0  0  0  0  0
   -0.4205    5.0243    1.7904 H   0  0  0  0  0  0  0  0  0  0  0  0
    1.8915    4.1264    1.8026 H   0  0  0  0  0  0  0  0  0  0  0  0
    3.0456    0.7542   -3.5507 H   0  0  0  0  0  0  0  0  0  0  0  0
   -2.3052    3.5730    1.1417 H   0  0  0  0  0  0  0  0  0  0  0  0
    1.0767    1.0833   -2.1048 H   0  0  0  0  0  0  0  0  0  0  0  0
    4.8449   -0.8017   -2.8867 H   0  0  0  0  0  0  0  0  0  0  0  0
    2.3187    1.7993    1.1423 H   0  0  0  0  0  0  0  0  0  0  0  0
    2.6744   -1.7340    0.7448 H   0  0  0  0  0  0  0  0  0  0  0  0
   -2.5740    1.2644   -0.6260 H   0  0  0  0  0  0  0  0  0  0  0  0
   -3.0779    1.2336    1.0745 H   0  0  0  0  0  0  0  0  0  0  0  0
   -0.8276   -0.4858   -1.3681 H   0  0  0  0  0  0  0  0  0  0  0  0
   -0.4644   -1.8850   -0.3710 H   0  0  0  0  0  0  0  0  0  0  0  0
   -1.8424   -0.8288    1.5023 H   0  0  0  0  0  0  0  0  0  0  0  0
    0.7041   -0.6318    1.2785 H   0  0  0  0  0  0  0  0  0  0  0  0
  1 19  1  0
  2 19  1  0
  3  4  2  0
  3  6  1  0
  4  9  1  0
  5  7  2  0
  5  8  1  0
  6 13  2  0
  7 14  1  0
  8 15  2  0
  9 17  2  0
 10 14  2  0
 10 15  1  0
 11 13  1  0
 11 16  1  0
 12 16  1  0
 12 18  1  0
 13 17  1  0
 14 18  1  0
 15 20  1  0
 16 19  1  0
 17 18  1  0
 20 21  1  0
 20 22  2  0
  1 23  1  0
  1 24  1  0
  1 25  1  0
  2 26  1  0
  2 27  1  0
  2 28  1  0
  3 29  1  0
  4 30  1  0
  5 31  1  0
  6 32  1  0
  7 33  1  0
  8 34  1  0
  9 35  1  0
 10 36  1  0
 11 37  1  0
 11 38  1  0
 12 39  1  0
 12 40  1  0
 16 41  1  0
 18 42  1  0
M  CHG  2  20   1  21  -1
M  END
