
     RDKit          3D

 49 50  0  0  0  0  0  0  0  0999 V2000
   -2.2615    3.1972    0.7723 C   0  0  0  0  0  0  0  0  0  0  0  0
   -2.1180    0.6372   -2.5876 C   0  0  0  0  0  0  0  0  0  0  0  0
    1.7216    0.1091    1.9357 C   0  0  0  0  0  0  0  0  0  0  0  0
   -1.4814    1.8912    0.9058 C   0  0  0  0  0  0  0  0  0  0  0  0
   -1.3069    1.2563   -1.4522 C   0  0  0  0  0  0  0  0  0  0  0  0
   -1.7001   -3.1400    1.2301 C   0  0  0  0  0  0  0  0  0  0  0  0
   -2.8924   -2.2967    1.6432 C   0  0  0  0  0  0  0  0  0  0  0  0
   -0.3871   -2.4103    1.4997 C   0  0  0  0  0  0  0  0  0  0  0  0
   -2.9726   -0.9809    0.8677 C   0  0  0  0  0  0  0  0  0  0  0  0
    2.8398    1.2765   -0.8593 C   0  0  0  0  0  0  0  0  0  0  0  0
    4.0271    1.8408   -1.3293 C   0  0  0  0  0  0  0  0  0  0  0  0
    3.6968   -0.9386   -1.3627 C   0  0  0  0  0  0  0  0  0  0  0  0
    2.6861   -0.1145   -0.8586 C   0  0  0  0  0  0  0  0  0  0  0  0
    5.0526    1.0194   -1.8115 C   0  0  0  0  0  0  0  0  0  0  0  0
    4.8846   -0.3719   -1.8317 C   0  0  0  0  0  0  0  0  0  0  0  0
   -0.4437   -0.8866    1.2232 C   0  0  0  0  0  0  0  0  0  0  0  0
   -1.6260   -0.5048    0.2588 C   0  0  0  0  0  0  0  0  0  0  0  0
    1.4200   -0.7346   -0.4062 C   0  0  0  0  0  0  0  0  0  0  0  0
    6.4957    1.7865   -2.3717 Cl  0  0  0  0  0  0  0  0  0  0  0  0
    6.1059   -1.4416   -2.4226 Cl  0  0  0  0  0  0  0  0  0  0  0  0
    0.8914   -0.3752    0.8361 N   0  0  0  0  0  0  0  0  0  0  0  0
   -1.8449    0.9187   -0.1282 N   0  0  0  0  0  0  0  0  0  0  0  0
    0.8845   -1.5225   -1.1816 O   0  0  0  0  0  0  0  0  0  0  0  0
   -3.3404    3.0100    0.7503 H   0  0  0  0  0  0  0  0  0  0  0  0
   -2.0528    3.8429    1.6321 H   0  0  0  0  0  0  0  0  0  0  0  0
   -1.9893    3.7557   -0.1275 H   0  0  0  0  0  0  0  0  0  0  0  0
   -1.7556    1.0141   -3.5499 H   0  0  0  0  0  0  0  0  0  0  0  0
   -2.0376   -0.4529   -2.6144 H   0  0  0  0  0  0  0  0  0  0  0  0
   -3.1771    0.9033   -2.5033 H   0  0  0  0  0  0  0  0  0  0  0  0
    1.2606    1.0061    2.3577 H   0  0  0  0  0  0  0  0  0  0  0  0
    1.7693   -0.6685    2.7048 H   0  0  0  0  0  0  0  0  0  0  0  0
    2.7451    0.3355    1.6362 H   0  0  0  0  0  0  0  0  0  0  0  0
   -0.4067    2.1029    0.8964 H   0  0  0  0  0  0  0  0  0  0  0  0
   -1.7285    1.4998    1.8991 H   0  0  0  0  0  0  0  0  0  0  0  0
   -0.2553    0.9778   -1.5461 H   0  0  0  0  0  0  0  0  0  0  0  0
   -1.3423    2.3386   -1.6152 H   0  0  0  0  0  0  0  0  0  0  0  0
   -1.7061   -4.0928    1.7716 H   0  0  0  0  0  0  0  0  0  0  0  0
   -1.7750   -3.3859    0.1637 H   0  0  0  0  0  0  0  0  0  0  0  0
   -2.8213   -2.0781    2.7164 H   0  0  0  0  0  0  0  0  0  0  0  0
   -3.8217   -2.8610    1.5046 H   0  0  0  0  0  0  0  0  0  0  0  0
   -0.1053   -2.5540    2.5515 H   0  0  0  0  0  0  0  0  0  0  0  0
    0.4039   -2.9036    0.9235 H   0  0  0  0  0  0  0  0  0  0  0  0
   -3.7009   -1.0914    0.0526 H   0  0  0  0  0  0  0  0  0  0  0  0
   -3.3941   -0.2236    1.5417 H   0  0  0  0  0  0  0  0  0  0  0  0
    2.0359    1.9191   -0.5072 H   0  0  0  0  0  0  0  0  0  0  0  0
    4.1453    2.9222   -1.3258 H   0  0  0  0  0  0  0  0  0  0  0  0
    3.5495   -2.0164   -1.3913 H   0  0  0  0  0  0  0  0  0  0  0  0
   -0.6759   -0.4138    2.1878 H   0  0  0  0  0  0  0  0  0  0  0  0
   -1.4949   -1.1006   -0.6507 H   0  0  0  0  0  0  0  0  0  0  0  0
  1  4  1  0
  2  5  1  0
  3 21  1  0
  4 22  1  0
  5 22  1  0
  6  7  1  0
  6  8  1  0
  7  9  1  0
  8 16  1  0
  9 17  1  0
 10 11  2  0
 10 13  1  0
 11 14  1  0
 12 13  2  0
 12 15  1  0
 13 18  1  0
 14 15  2  0
 14 19  1  0
 15 20  1  0
 16 17  1  0
 16 21  1  0
 17 22  1  0
 18 21  1  0
 18 23  2  0
  1 24  1  0
  1 25  1  0
  1 26  1  0
  2 27  1  0
  2 28  1  0
  2 29  1  0
  3 30  1  0
  3 31  1  0
  3 32  1  0
  4 33  1  0
  4 34  1  0
  5 35  1  0
  5 36  1  0
  6 37  1  0
  6 38  1  0
  7 39  1  0
  7 40  1  0
  8 41  1  0
  8 42  1  0
  9 43  1  0
  9 44  1  0
 10 45  1  0
 11 46  1  0
 12 47  1  0
 16 48  1  0
 17 49  1  0
M  END
