
     RDKit          3D

 45 47  0  0  0  0  0  0  0  0999 V2000
   -5.1142    0.0749   -0.8366 C   0  0  0  0  0  0  0  0  0  0  0  0
   -3.3176    1.5226   -0.2079 C   0  0  0  0  0  0  0  0  0  0  0  0
   -1.5179   -0.9857   -0.2220 C   0  0  0  0  0  0  0  0  0  0  0  0
    1.3992    2.7600   -1.5093 C   0  0  0  0  0  0  0  0  0  0  0  0
    1.5116   -2.6368    1.2819 C   0  0  0  0  0  0  0  0  0  0  0  0
    1.9219   -1.7321   -0.9182 C   0  0  0  0  0  0  0  0  0  0  0  0
    2.0919   -3.8471    0.8976 C   0  0  0  0  0  0  0  0  0  0  0  0
    2.5027   -2.9445   -1.3022 C   0  0  0  0  0  0  0  0  0  0  0  0
    0.8062    1.5660   -1.0820 C   0  0  0  0  0  0  0  0  0  0  0  0
   -0.7816   -0.3840    0.9829 C   0  0  0  0  0  0  0  0  0  0  0  0
   -3.0487   -0.9096   -0.0968 C   0  0  0  0  0  0  0  0  0  0  0  0
    2.7628    2.8418    0.4984 C   0  0  0  0  0  0  0  0  0  0  0  0
    2.9759    4.6171   -1.1805 C   0  0  0  0  0  0  0  0  0  0  0  0
    2.3800    0.8948    2.1544 C   0  0  0  0  0  0  0  0  0  0  0  0
    2.3769    3.3964   -0.7256 C   0  0  0  0  0  0  0  0  0  0  0  0
    2.1560    1.6633    0.9084 C   0  0  0  0  0  0  0  0  0  0  0  0
    1.4205   -1.5514    0.3842 C   0  0  0  0  0  0  0  0  0  0  0  0
    2.5831   -3.9889   -0.3916 C   0  0  0  0  0  0  0  0  0  0  0  0
    1.1991    1.0144    0.1310 C   0  0  0  0  0  0  0  0  0  0  0  0
    0.7539   -0.2467    0.8383 C   0  0  0  0  0  0  0  0  0  0  0  0
    3.1396   -5.1489   -0.7636 F   0  0  0  0  0  0  0  0  0  0  0  0
    3.4619    5.6051   -1.5474 N   0  0  0  0  0  0  0  0  0  0  0  0
   -3.6559    0.2318   -0.8049 N   0  0  0  0  0  0  0  0  0  0  0  0
    1.2394    0.0164    2.2036 O   0  0  0  0  0  0  0  0  0  0  0  0
   -5.5776    0.8856   -1.4102 H   0  0  0  0  0  0  0  0  0  0  0  0
   -5.3925   -0.8578   -1.3399 H   0  0  0  0  0  0  0  0  0  0  0  0
   -5.5501    0.0695    0.1692 H   0  0  0  0  0  0  0  0  0  0  0  0
   -3.8497    2.3357   -0.7156 H   0  0  0  0  0  0  0  0  0  0  0  0
   -2.2546    1.7449   -0.3343 H   0  0  0  0  0  0  0  0  0  0  0  0
   -3.5679    1.5656    0.8580 H   0  0  0  0  0  0  0  0  0  0  0  0
   -1.2467   -2.0471   -0.2919 H   0  0  0  0  0  0  0  0  0  0  0  0
   -1.1998   -0.5369   -1.1660 H   0  0  0  0  0  0  0  0  0  0  0  0
    1.0942    3.1923   -2.4615 H   0  0  0  0  0  0  0  0  0  0  0  0
    1.1293   -2.5369    2.2971 H   0  0  0  0  0  0  0  0  0  0  0  0
    1.8695   -0.9376   -1.6575 H   0  0  0  0  0  0  0  0  0  0  0  0
    2.1622   -4.6750    1.5955 H   0  0  0  0  0  0  0  0  0  0  0  0
    2.8907   -3.0787   -2.3070 H   0  0  0  0  0  0  0  0  0  0  0  0
    0.0579    1.0938   -1.7098 H   0  0  0  0  0  0  0  0  0  0  0  0
   -1.2001    0.5923    1.2524 H   0  0  0  0  0  0  0  0  0  0  0  0
   -1.0008   -1.0207    1.8527 H   0  0  0  0  0  0  0  0  0  0  0  0
   -3.3566   -0.9368    0.9565 H   0  0  0  0  0  0  0  0  0  0  0  0
   -3.4368   -1.8285   -0.5567 H   0  0  0  0  0  0  0  0  0  0  0  0
    3.5130    3.3231    1.1207 H   0  0  0  0  0  0  0  0  0  0  0  0
    2.3726    1.5252    3.0471 H   0  0  0  0  0  0  0  0  0  0  0  0
    3.2967    0.2992    2.1093 H   0  0  0  0  0  0  0  0  0  0  0  0
  1 23  1  0
  2 23  1  0
  3 10  1  0
  3 11  1  0
  4  9  2  0
  4 15  1  0
  5  7  2  0
  5 17  1  0
  6  8  1  0
  6 17  2  0
  7 18  1  0
  8 18  2  0
  9 19  1  0
 10 20  1  0
 11 23  1  0
 12 15  2  0
 12 16  1  0
 13 15  1  0
 13 22  3  0
 14 16  1  0
 14 24  1  0
 16 19  2  0
 17 20  1  0
 18 21  1  0
 19 20  1  0
 20 24  1  0
  1 25  1  0
  1 26  1  0
  1 27  1  0
  2 28  1  0
  2 29  1  0
  2 30  1  0
  3 31  1  0
  3 32  1  0
  4 33  1  0
  5 34  1  0
  6 35  1  0
  7 36  1  0
  8 37  1  0
  9 38  1  0
 10 39  1  0
 10 40  1  0
 11 41  1  0
 11 42  1  0
 12 43  1  0
 14 44  1  0
 14 45  1  0
M  END
