
     RDKit          3D

 55 57  0  0  0  0  0  0  0  0999 V2000
   -1.8580    3.4274   -0.5807 C   0  0  0  0  0  0  0  0  0  0  0  0
   -3.0973    2.6454   -0.1869 C   0  0  0  0  0  0  0  0  0  0  0  0
   -5.8191   -3.0160    1.2570 C   0  0  0  0  0  0  0  0  0  0  0  0
   -4.9837   -2.4006    2.1824 C   0  0  0  0  0  0  0  0  0  0  0  0
   -5.4939   -2.9805   -0.0952 C   0  0  0  0  0  0  0  0  0  0  0  0
   -3.8226   -1.7535    1.7536 C   0  0  0  0  0  0  0  0  0  0  0  0
   -4.3317   -2.3321   -0.5260 C   0  0  0  0  0  0  0  0  0  0  0  0
   -1.8826   -1.0412   -1.5592 C   0  0  0  0  0  0  0  0  0  0  0  0
   -0.9623   -1.6569    0.6760 C   0  0  0  0  0  0  0  0  0  0  0  0
   -0.5850   -0.3137   -1.9409 C   0  0  0  0  0  0  0  0  0  0  0  0
    0.3754   -1.4643   -0.0538 C   0  0  0  0  0  0  0  0  0  0  0  0
    1.7039    0.1604   -1.3177 C   0  0  0  0  0  0  0  0  0  0  0  0
    2.6111    0.7359   -0.2020 C   0  0  0  0  0  0  0  0  0  0  0  0
    4.5384    2.1368    0.2499 C   0  0  0  0  0  0  0  0  0  0  0  0
    4.8385    0.1045   -1.0520 C   0  0  0  0  0  0  0  0  0  0  0  0
    6.0480    2.2734    0.0047 C   0  0  0  0  0  0  0  0  0  0  0  0
    5.9431   -0.1163   -0.0050 C   0  0  0  0  0  0  0  0  0  0  0  0
   -3.4690   -1.7066    0.3893 C   0  0  0  0  0  0  0  0  0  0  0  0
   -2.2775    0.5012    0.4184 C   0  0  0  0  0  0  0  0  0  0  0  0
   -2.1739   -0.9799   -0.0369 C   0  0  0  0  0  0  0  0  0  0  0  0
    0.3672   -0.2245   -0.8265 N   0  0  0  0  0  0  0  0  0  0  0  0
    3.9109    1.2072   -0.7162 N   0  0  0  0  0  0  0  0  0  0  0  0
   -1.8912    0.9312    1.5009 O   0  0  0  0  0  0  0  0  0  0  0  0
    6.7581    1.0430    0.2083 O   0  0  0  0  0  0  0  0  0  0  0  0
   -2.9317    1.2588   -0.5133 O   0  0  0  0  0  0  0  0  0  0  0  0
   -0.9816    3.0855   -0.0211 H   0  0  0  0  0  0  0  0  0  0  0  0
   -1.9979    4.4958   -0.3927 H   0  0  0  0  0  0  0  0  0  0  0  0
   -1.6332    3.2816   -1.6427 H   0  0  0  0  0  0  0  0  0  0  0  0
   -3.3390    2.7798    0.8736 H   0  0  0  0  0  0  0  0  0  0  0  0
   -3.9573    3.0078   -0.7595 H   0  0  0  0  0  0  0  0  0  0  0  0
   -6.7232   -3.5194    1.5884 H   0  0  0  0  0  0  0  0  0  0  0  0
   -5.2334   -2.4200    3.2400 H   0  0  0  0  0  0  0  0  0  0  0  0
   -6.1468   -3.4590   -0.8212 H   0  0  0  0  0  0  0  0  0  0  0  0
   -3.1933   -1.2766    2.5047 H   0  0  0  0  0  0  0  0  0  0  0  0
   -4.1269   -2.3329   -1.5928 H   0  0  0  0  0  0  0  0  0  0  0  0
   -1.7892   -2.0930   -1.8653 H   0  0  0  0  0  0  0  0  0  0  0  0
   -2.7048   -0.6214   -2.1523 H   0  0  0  0  0  0  0  0  0  0  0  0
   -0.8592   -1.2859    1.7036 H   0  0  0  0  0  0  0  0  0  0  0  0
   -1.1301   -2.7392    0.7655 H   0  0  0  0  0  0  0  0  0  0  0  0
   -0.8275    0.7026   -2.2745 H   0  0  0  0  0  0  0  0  0  0  0  0
   -0.1444   -0.8319   -2.8030 H   0  0  0  0  0  0  0  0  0  0  0  0
    0.5738   -2.3242   -0.7075 H   0  0  0  0  0  0  0  0  0  0  0  0
    1.1656   -1.4680    0.7042 H   0  0  0  0  0  0  0  0  0  0  0  0
    1.5918    0.9502   -2.0734 H   0  0  0  0  0  0  0  0  0  0  0  0
    2.1790   -0.6902   -1.8205 H   0  0  0  0  0  0  0  0  0  0  0  0
    2.0724    1.5853    0.2405 H   0  0  0  0  0  0  0  0  0  0  0  0
    2.7695    0.0074    0.6015 H   0  0  0  0  0  0  0  0  0  0  0  0
    4.3878    1.7787    1.2773 H   0  0  0  0  0  0  0  0  0  0  0  0
    4.0619    3.1197    0.1620 H   0  0  0  0  0  0  0  0  0  0  0  0
    4.3135   -0.8398   -1.2295 H   0  0  0  0  0  0  0  0  0  0  0  0
    5.3173    0.3752   -2.0013 H   0  0  0  0  0  0  0  0  0  0  0  0
    6.2482    2.6185   -1.0165 H   0  0  0  0  0  0  0  0  0  0  0  0
    6.4754    3.0144    0.6877 H   0  0  0  0  0  0  0  0  0  0  0  0
    5.5105   -0.4136    0.9574 H   0  0  0  0  0  0  0  0  0  0  0  0
    6.6062   -0.9265   -0.3247 H   0  0  0  0  0  0  0  0  0  0  0  0
  1  2  1  0
  2 25  1  0
  3  4  2  0
  3  5  1  0
  4  6  1  0
  5  7  2  0
  6 18  2  0
  7 18  1  0
  8 10  1  0
  8 20  1  0
  9 11  1  0
  9 20  1  0
 10 21  1  0
 11 21  1  0
 12 13  1  0
 12 21  1  0
 13 22  1  0
 14 16  1  0
 14 22  1  0
 15 17  1  0
 15 22  1  0
 16 24  1  0
 17 24  1  0
 18 20  1  0
 19 20  1  0
 19 23  2  0
 19 25  1  0
  1 26  1  0
  1 27  1  0
  1 28  1  0
  2 29  1  0
  2 30  1  0
  3 31  1  0
  4 32  1  0
  5 33  1  0
  6 34  1  0
  7 35  1  0
  8 36  1  0
  8 37  1  0
  9 38  1  0
  9 39  1  0
 10 40  1  0
 10 41  1  0
 11 42  1  0
 11 43  1  0
 12 44  1  0
 12 45  1  0
 13 46  1  0
 13 47  1  0
 14 48  1  0
 14 49  1  0
 15 50  1  0
 15 51  1  0
 16 52  1  0
 16 53  1  0
 17 54  1  0
 17 55  1  0
M  END
