
     RDKit          3D

 54 56  0  0  0  0  0  0  0  0999 V2000
   -5.0804    3.7981    1.0831 C   0  0  0  0  0  0  0  0  0  0  0  0
    7.9539   -0.7716    0.8120 C   0  0  0  0  0  0  0  0  0  0  0  0
   -5.1356   -2.6922   -2.1344 C   0  0  0  0  0  0  0  0  0  0  0  0
    7.4528   -0.9950   -0.4692 C   0  0  0  0  0  0  0  0  0  0  0  0
    7.0828   -0.7023    1.8976 C   0  0  0  0  0  0  0  0  0  0  0  0
   -4.0473   -2.2381   -2.8756 C   0  0  0  0  0  0  0  0  0  0  0  0
   -5.3989   -2.1439   -0.8812 C   0  0  0  0  0  0  0  0  0  0  0  0
    6.0799   -1.1508   -0.6658 C   0  0  0  0  0  0  0  0  0  0  0  0
    5.7094   -0.8578    1.7034 C   0  0  0  0  0  0  0  0  0  0  0  0
   -3.2256   -1.2300   -2.3661 C   0  0  0  0  0  0  0  0  0  0  0  0
   -4.5789   -1.1336   -0.3724 C   0  0  0  0  0  0  0  0  0  0  0  0
    3.7082   -1.2359    0.2052 C   0  0  0  0  0  0  0  0  0  0  0  0
   -0.3537    1.1202   -1.3341 C   0  0  0  0  0  0  0  0  0  0  0  0
   -0.6458   -0.1514    0.8431 C   0  0  0  0  0  0  0  0  0  0  0  0
    3.0296    0.1270   -0.0161 C   0  0  0  0  0  0  0  0  0  0  0  0
    1.0366    1.3130   -0.7234 C   0  0  0  0  0  0  0  0  0  0  0  0
    0.8302   -0.5683    0.8006 C   0  0  0  0  0  0  0  0  0  0  0  0
   -4.5857    1.9561   -0.3291 C   0  0  0  0  0  0  0  0  0  0  0  0
    5.1961   -1.0884    0.4199 C   0  0  0  0  0  0  0  0  0  0  0  0
   -3.4930   -0.6567   -1.1163 C   0  0  0  0  0  0  0  0  0  0  0  0
   -1.1869    0.0712   -0.5745 C   0  0  0  0  0  0  0  0  0  0  0  0
   -3.1230    1.5501   -0.0174 C   0  0  0  0  0  0  0  0  0  0  0  0
    1.5899    0.0169   -0.3188 N   0  0  0  0  0  0  0  0  0  0  0  0
   -2.6433    0.3649   -0.5991 N   0  0  0  0  0  0  0  0  0  0  0  0
   -2.3977    2.2879    0.6566 O   0  0  0  0  0  0  0  0  0  0  0  0
   -4.8770    3.3490   -0.2498 O   0  0  0  0  0  0  0  0  0  0  0  0
   -4.1904    3.6493    1.6989 H   0  0  0  0  0  0  0  0  0  0  0  0
   -5.9362    3.2847    1.5321 H   0  0  0  0  0  0  0  0  0  0  0  0
   -5.3004    4.8688    1.0515 H   0  0  0  0  0  0  0  0  0  0  0  0
    9.0230   -0.6502    0.9640 H   0  0  0  0  0  0  0  0  0  0  0  0
   -5.7732   -3.4789   -2.5300 H   0  0  0  0  0  0  0  0  0  0  0  0
    8.1314   -1.0469   -1.3165 H   0  0  0  0  0  0  0  0  0  0  0  0
    7.4731   -0.5260    2.8965 H   0  0  0  0  0  0  0  0  0  0  0  0
   -3.8378   -2.6663   -3.8527 H   0  0  0  0  0  0  0  0  0  0  0  0
   -6.2359   -2.5123   -0.2932 H   0  0  0  0  0  0  0  0  0  0  0  0
    5.7026   -1.3207   -1.6718 H   0  0  0  0  0  0  0  0  0  0  0  0
    5.0418   -0.7982    2.5599 H   0  0  0  0  0  0  0  0  0  0  0  0
   -2.3941   -0.8779   -2.9717 H   0  0  0  0  0  0  0  0  0  0  0  0
   -4.7747   -0.7638    0.6304 H   0  0  0  0  0  0  0  0  0  0  0  0
    3.2791   -1.7531    1.0721 H   0  0  0  0  0  0  0  0  0  0  0  0
    3.5285   -1.8904   -0.6577 H   0  0  0  0  0  0  0  0  0  0  0  0
   -0.2571    0.7922   -2.3777 H   0  0  0  0  0  0  0  0  0  0  0  0
   -0.8518    2.0948   -1.3796 H   0  0  0  0  0  0  0  0  0  0  0  0
   -1.2315   -0.9208    1.3607 H   0  0  0  0  0  0  0  0  0  0  0  0
   -0.7336    0.7598    1.4447 H   0  0  0  0  0  0  0  0  0  0  0  0
    3.5306    0.6152   -0.8629 H   0  0  0  0  0  0  0  0  0  0  0  0
    3.1897    0.7764    0.8553 H   0  0  0  0  0  0  0  0  0  0  0  0
    0.9926    2.0047    0.1280 H   0  0  0  0  0  0  0  0  0  0  0  0
    1.6694    1.7872   -1.4838 H   0  0  0  0  0  0  0  0  0  0  0  0
    1.2754   -0.3057    1.7691 H   0  0  0  0  0  0  0  0  0  0  0  0
    0.8815   -1.6600    0.7104 H   0  0  0  0  0  0  0  0  0  0  0  0
   -4.8058    1.6733   -1.3634 H   0  0  0  0  0  0  0  0  0  0  0  0
   -5.2655    1.4110    0.3321 H   0  0  0  0  0  0  0  0  0  0  0  0
   -1.0273   -0.8844   -1.0930 H   0  0  0  0  0  0  0  0  0  0  0  0
  1 26  1  0
  2  4  2  0
  2  5  1  0
  3  6  2  0
  3  7  1  0
  4  8  1  0
  5  9  2  0
  6 10  1  0
  7 11  2  0
  8 19  2  0
  9 19  1  0
 10 20  2  0
 11 20  1  0
 12 15  1  0
 12 19  1  0
 13 16  1  0
 13 21  1  0
 14 17  1  0
 14 21  1  0
 15 23  1  0
 16 23  1  0
 17 23  1  0
 18 22  1  0
 18 26  1  0
 20 24  1  0
 21 24  1  0
 22 24  1  0
 22 25  2  0
  1 27  1  0
  1 28  1  0
  1 29  1  0
  2 30  1  0
  3 31  1  0
  4 32  1  0
  5 33  1  0
  6 34  1  0
  7 35  1  0
  8 36  1  0
  9 37  1  0
 10 38  1  0
 11 39  1  0
 12 40  1  0
 12 41  1  0
 13 42  1  0
 13 43  1  0
 14 44  1  0
 14 45  1  0
 15 46  1  0
 15 47  1  0
 16 48  1  0
 16 49  1  0
 17 50  1  0
 17 51  1  0
 18 52  1  0
 18 53  1  0
 21 54  1  0
M  END
