
     RDKit          3D

 15 14  0  0  0  0  0  0  0  0999 V2000
    2.1639    0.8806   -0.2230 C   0  0  0  0  0  0  0  0  0  0  0  0
   -2.0394   -0.1801    0.5828 C   0  0  0  0  0  0  0  0  0  0  0  0
    1.0184   -0.0284    0.1785 C   0  0  0  0  0  0  0  0  0  0  0  0
   -1.1512   -0.7176   -0.5251 C   0  0  0  0  0  0  0  0  0  0  0  0
   -0.0365    0.1384   -0.7654 O   0  0  0  0  0  0  0  0  0  0  0  0
    2.5141    0.6372   -1.2315 H   0  0  0  0  0  0  0  0  0  0  0  0
    1.8379    1.9258   -0.2423 H   0  0  0  0  0  0  0  0  0  0  0  0
    3.0009    0.7846    0.4742 H   0  0  0  0  0  0  0  0  0  0  0  0
   -1.5254   -0.1959    1.5484 H   0  0  0  0  0  0  0  0  0  0  0  0
   -2.9497   -0.7801    0.6717 H   0  0  0  0  0  0  0  0  0  0  0  0
   -2.3183    0.8597    0.3835 H   0  0  0  0  0  0  0  0  0  0  0  0
    0.6749    0.2384    1.1825 H   0  0  0  0  0  0  0  0  0  0  0  0
    1.3562   -1.0704    0.1781 H   0  0  0  0  0  0  0  0  0  0  0  0
   -0.8167   -1.7385   -0.3089 H   0  0  0  0  0  0  0  0  0  0  0  0
   -1.7293   -0.7537   -1.4544 H   0  0  0  0  0  0  0  0  0  0  0  0
  1  3  1  0
  2  4  1  0
  3  5  1  0
  4  5  1  0
  1  6  1  0
  1  7  1  0
  1  8  1  0
  2  9  1  0
  2 10  1  0
  2 11  1  0
  3 12  1  0
  3 13  1  0
  4 14  1  0
  4 15  1  0
M  END
