
     RDKit          3D

 17 17  0  0  0  0  0  0  0  0999 V2000
    1.4081   -1.5531    0.3305 C   0  0  0  0  0  0  0  0  0  0  0  0
   -1.3674   -0.1284   -0.6117 C   0  0  0  0  0  0  0  0  0  0  0  0
   -2.2809    0.1904    0.5689 C   0  0  0  0  0  0  0  0  0  0  0  0
    1.9415    1.9069   -0.4673 C   0  0  0  0  0  0  0  0  0  0  0  0
    1.1979   -0.1397   -0.0831 C   0  0  0  0  0  0  0  0  0  0  0  0
    0.0077    0.4562   -0.4761 C   0  0  0  0  0  0  0  0  0  0  0  0
   -1.8290   -0.7234    2.0305 Cl  0  0  0  0  0  0  0  0  0  0  0  0
    2.2985    0.7044   -0.0801 N   0  0  0  0  0  0  0  0  0  0  0  0
    0.2901    2.1093   -0.8621 S   0  0  0  0  0  0  0  0  0  0  0  0
    0.8235   -2.2387   -0.2899 H   0  0  0  0  0  0  0  0  0  0  0  0
    1.1179   -1.6903    1.3761 H   0  0  0  0  0  0  0  0  0  0  0  0
    2.4622   -1.8320    0.2314 H   0  0  0  0  0  0  0  0  0  0  0  0
   -1.8300    0.2671   -1.5256 H   0  0  0  0  0  0  0  0  0  0  0  0
   -1.3053   -1.2134   -0.7581 H   0  0  0  0  0  0  0  0  0  0  0  0
   -2.2722    1.2544    0.8240 H   0  0  0  0  0  0  0  0  0  0  0  0
   -3.3099   -0.0937    0.3285 H   0  0  0  0  0  0  0  0  0  0  0  0
    2.6473    2.7240   -0.5362 H   0  0  0  0  0  0  0  0  0  0  0  0
  1  5  1  0
  2  3  1  0
  2  6  1  0
  3  7  1  0
  4  8  2  0
  4  9  1  0
  5  6  2  0
  5  8  1  0
  6  9  1  0
  1 10  1  0
  1 11  1  0
  1 12  1  0
  2 13  1  0
  2 14  1  0
  3 15  1  0
  3 16  1  0
  4 17  1  0
M  END
