
     RDKit          3D

 13 13  0  0  0  0  0  0  0  0999 V2000
   -1.6737    0.1245    0.1729 C   0  0  0  0  0  0  0  0  0  0  0  0
   -0.7849    1.1043    0.5895 C   0  0  0  0  0  0  0  0  0  0  0  0
   -1.1947   -1.0336   -0.4223 C   0  0  0  0  0  0  0  0  0  0  0  0
    0.5840    0.9258    0.4108 C   0  0  0  0  0  0  0  0  0  0  0  0
    0.1747   -1.2132   -0.6015 C   0  0  0  0  0  0  0  0  0  0  0  0
    1.0846   -0.2351   -0.1871 C   0  0  0  0  0  0  0  0  0  0  0  0
   -2.9914    0.2962    0.3448 F   0  0  0  0  0  0  0  0  0  0  0  0
   -1.2429    2.2246    1.1649 F   0  0  0  0  0  0  0  0  0  0  0  0
   -2.0517   -1.9818   -0.8257 F   0  0  0  0  0  0  0  0  0  0  0  0
    1.4273    1.8862    0.8211 F   0  0  0  0  0  0  0  0  0  0  0  0
    0.6091   -2.3433   -1.1800 F   0  0  0  0  0  0  0  0  0  0  0  0
    2.8380   -0.4613   -0.4148 S   0  0  0  0  0  0  0  0  0  0  0  0
    3.2218    0.7066    0.1272 H   0  0  0  0  0  0  0  0  0  0  0  0
  1  2  2  0
  1  3  1  0
  1  7  1  0
  2  4  1  0
  2  8  1  0
  3  5  2  0
  3  9  1  0
  4  6  2  0
  4 10  1  0
  5  6  1  0
  5 11  1  0
  6 12  1  0
 12 13  1  0
M  END
