
     RDKit          3D

 31 32  0  0  0  0  0  0  0  0999 V2000
   -2.8181    2.2326   -0.8363 C   0  0  0  0  0  0  0  0  0  0  0  0
   -2.6266   -1.9498    0.8818 C   0  0  0  0  0  0  0  0  0  0  0  0
   -3.0737    0.7885   -0.4182 C   0  0  0  0  0  0  0  0  0  0  0  0
    1.1197   -0.8724   -0.7235 C   0  0  0  0  0  0  0  0  0  0  0  0
    2.4817   -1.1177   -0.9393 C   0  0  0  0  0  0  0  0  0  0  0  0
    1.6519    0.6678    1.0874 C   0  0  0  0  0  0  0  0  0  0  0  0
    5.1440    0.3108    0.8584 C   0  0  0  0  0  0  0  0  0  0  0  0
    0.6972    0.0226    0.2838 C   0  0  0  0  0  0  0  0  0  0  0  0
   -1.8043   -0.0816   -0.5078 C   0  0  0  0  0  0  0  0  0  0  0  0
    3.3882   -0.4612   -0.1369 C   0  0  0  0  0  0  0  0  0  0  0  0
    2.9845    0.4061    0.8497 C   0  0  0  0  0  0  0  0  0  0  0  0
   -0.7478    0.3171    0.5427 C   0  0  0  0  0  0  0  0  0  0  0  0
   -2.1110   -1.5299   -0.4189 N   0  0  0  0  0  0  0  0  0  0  0  0
   -1.0538    0.8815    1.5950 O   0  0  0  0  0  0  0  0  0  0  0  0
    4.7407   -0.5784   -0.2043 O   0  0  0  0  0  0  0  0  0  0  0  0
    4.0337    0.9449    1.5265 O   0  0  0  0  0  0  0  0  0  0  0  0
   -2.4398    2.2821   -1.8623 H   0  0  0  0  0  0  0  0  0  0  0  0
   -2.0927    2.7205   -0.1785 H   0  0  0  0  0  0  0  0  0  0  0  0
   -3.7493    2.8064   -0.7922 H   0  0  0  0  0  0  0  0  0  0  0  0
   -2.8279   -3.0256    0.8502 H   0  0  0  0  0  0  0  0  0  0  0  0
   -3.5661   -1.4511    1.1360 H   0  0  0  0  0  0  0  0  0  0  0  0
   -1.9000   -1.7883    1.6833 H   0  0  0  0  0  0  0  0  0  0  0  0
   -3.8493    0.3783   -1.0771 H   0  0  0  0  0  0  0  0  0  0  0  0
   -3.4830    0.7885    0.5987 H   0  0  0  0  0  0  0  0  0  0  0  0
    0.4014   -1.4067   -1.3398 H   0  0  0  0  0  0  0  0  0  0  0  0
    2.8135   -1.8076   -1.7075 H   0  0  0  0  0  0  0  0  0  0  0  0
    1.3595    1.3551    1.8752 H   0  0  0  0  0  0  0  0  0  0  0  0
    5.7908    1.0891    0.4375 H   0  0  0  0  0  0  0  0  0  0  0  0
    5.7172   -0.2621    1.5966 H   0  0  0  0  0  0  0  0  0  0  0  0
   -1.3686    0.0964   -1.4989 H   0  0  0  0  0  0  0  0  0  0  0  0
   -2.8120   -1.7557   -1.1255 H   0  0  0  0  0  0  0  0  0  0  0  0
  1  3  1  0
  2 13  1  0
  3  9  1  0
  4  5  2  0
  4  8  1  0
  5 10  1  0
  6  8  2  0
  6 11  1  0
  7 15  1  0
  7 16  1  0
  8 12  1  0
  9 12  1  0
  9 13  1  0
 10 11  2  0
 10 15  1  0
 11 16  1  0
 12 14  2  0
  1 17  1  0
  1 18  1  0
  1 19  1  0
  2 20  1  0
  2 21  1  0
  2 22  1  0
  3 23  1  0
  3 24  1  0
  4 25  1  0
  5 26  1  0
  6 27  1  0
  7 28  1  0
  7 29  1  0
  9 30  1  0
 13 31  1  0
M  END
