
     RDKit          3D

 21 22  0  0  0  0  0  0  0  0999 V2000
    3.0056    0.2912   -0.1379 C   0  0  0  0  0  0  0  0  0  0  0  0
   -2.9859    0.8649    0.1066 C   0  0  0  0  0  0  0  0  0  0  0  0
    1.0901    1.9084   -0.0975 C   0  0  0  0  0  0  0  0  0  0  0  0
    0.5514   -0.2158   -0.0182 C   0  0  0  0  0  0  0  0  0  0  0  0
   -0.5512    0.5809    0.0086 C   0  0  0  0  0  0  0  0  0  0  0  0
    0.3752   -1.6061    0.0260 C   0  0  0  0  0  0  0  0  0  0  0  0
   -1.9122   -1.3788    0.1192 C   0  0  0  0  0  0  0  0  0  0  0  0
   -0.2287    1.9009   -0.0401 N   0  0  0  0  0  0  0  0  0  0  0  0
   -0.7708   -2.1763    0.0907 N   0  0  0  0  0  0  0  0  0  0  0  0
    1.6091    0.6376   -0.0865 N   0  0  0  0  0  0  0  0  0  0  0  0
   -1.8064    0.0248    0.0776 N   0  0  0  0  0  0  0  0  0  0  0  0
    1.5011   -2.3313   -0.0036 O   0  0  0  0  0  0  0  0  0  0  0  0
   -3.0161   -1.9190    0.1812 O   0  0  0  0  0  0  0  0  0  0  0  0
    3.1819   -0.3144   -1.0303 H   0  0  0  0  0  0  0  0  0  0  0  0
    3.6065    1.2029   -0.1879 H   0  0  0  0  0  0  0  0  0  0  0  0
    3.2598   -0.2671    0.7665 H   0  0  0  0  0  0  0  0  0  0  0  0
   -3.9056    0.2770    0.1619 H   0  0  0  0  0  0  0  0  0  0  0  0
   -2.9362    1.5197    0.9823 H   0  0  0  0  0  0  0  0  0  0  0  0
   -3.0135    1.4727   -0.8033 H   0  0  0  0  0  0  0  0  0  0  0  0
    1.7102    2.7948   -0.1477 H   0  0  0  0  0  0  0  0  0  0  0  0
    1.2358   -3.2668    0.0325 H   0  0  0  0  0  0  0  0  0  0  0  0
  1 10  1  0
  2 11  1  0
  3  8  2  0
  3 10  1  0
  4  5  2  0
  4  6  1  0
  4 10  1  0
  5  8  1  0
  5 11  1  0
  6  9  2  0
  6 12  1  0
  7  9  1  0
  7 11  1  0
  7 13  2  0
  1 14  1  0
  1 15  1  0
  1 16  1  0
  2 17  1  0
  2 18  1  0
  2 19  1  0
  3 20  1  0
 12 21  1  0
M  END
