
     RDKit          3D

 22 23  0  0  0  0  0  0  0  0999 V2000
   -3.3090    0.2182   -0.7451 C   0  0  0  0  0  0  0  0  0  0  0  0
   -3.0234   -0.0217    0.5970 C   0  0  0  0  0  0  0  0  0  0  0  0
   -2.2829    0.5575   -1.6240 C   0  0  0  0  0  0  0  0  0  0  0  0
   -1.7101    0.0761    1.0608 C   0  0  0  0  0  0  0  0  0  0  0  0
   -0.9690    0.6557   -1.1624 C   0  0  0  0  0  0  0  0  0  0  0  0
    1.4120   -0.8860    0.8183 C   0  0  0  0  0  0  0  0  0  0  0  0
   -0.6656    0.4178    0.1863 C   0  0  0  0  0  0  0  0  0  0  0  0
    0.7511    0.4898    0.7083 C   0  0  0  0  0  0  0  0  0  0  0  0
    2.8299    0.5956   -0.1746 C   0  0  0  0  0  0  0  0  0  0  0  0
    3.8086    1.0702   -0.8416 N   0  0  0  0  0  0  0  0  0  0  0  0
    2.7909   -0.5554    0.5419 N   0  0  0  0  0  0  0  0  0  0  0  0
    1.6305    1.2325   -0.1594 O   0  0  0  0  0  0  0  0  0  0  0  0
   -4.3316    0.1460   -1.1061 H   0  0  0  0  0  0  0  0  0  0  0  0
   -3.8253   -0.2812    1.2835 H   0  0  0  0  0  0  0  0  0  0  0  0
   -2.5041    0.7506   -2.6707 H   0  0  0  0  0  0  0  0  0  0  0  0
   -1.5102   -0.1099    2.1141 H   0  0  0  0  0  0  0  0  0  0  0  0
   -0.1826    0.9265   -1.8656 H   0  0  0  0  0  0  0  0  0  0  0  0
    1.2801   -1.3348    1.8071 H   0  0  0  0  0  0  0  0  0  0  0  0
    1.0439   -1.5867    0.0600 H   0  0  0  0  0  0  0  0  0  0  0  0
    0.7574    1.0113    1.6743 H   0  0  0  0  0  0  0  0  0  0  0  0
    4.6187    0.4619   -0.7202 H   0  0  0  0  0  0  0  0  0  0  0  0
    3.3908   -1.3022    0.2182 H   0  0  0  0  0  0  0  0  0  0  0  0
  1  2  2  0
  1  3  1  0
  2  4  1  0
  3  5  2  0
  4  7  2  0
  5  7  1  0
  6  8  1  0
  6 11  1  0
  7  8  1  0
  8 12  1  0
  9 10  2  3
  9 11  1  0
  9 12  1  0
  1 13  1  0
  2 14  1  0
  3 15  1  0
  4 16  1  0
  5 17  1  0
  6 18  1  0
  6 19  1  0
  8 20  1  0
 10 21  1  0
 11 22  1  0
M  END
