
     RDKit          3D

 22 23  0  0  0  0  0  0  0  0999 V2000
   -3.0033    0.7416    0.7436 C   0  0  0  0  0  0  0  0  0  0  0  0
   -2.9871   -0.1608   -0.4492 C   0  0  0  0  0  0  0  0  0  0  0  0
   -1.9245   -0.7648   -1.0044 C   0  0  0  0  0  0  0  0  0  0  0  0
    0.1283   -1.7474   -0.0168 C   0  0  0  0  0  0  0  0  0  0  0  0
    1.4577   -1.6550    0.4090 C   0  0  0  0  0  0  0  0  0  0  0  0
    0.1370    0.5964   -0.6811 C   0  0  0  0  0  0  0  0  0  0  0  0
    3.4636    1.2289    0.2700 C   0  0  0  0  0  0  0  0  0  0  0  0
   -0.5374   -0.6261   -0.5556 C   0  0  0  0  0  0  0  0  0  0  0  0
    2.0882   -0.4370    0.2777 C   0  0  0  0  0  0  0  0  0  0  0  0
    1.4464    0.6574   -0.2528 C   0  0  0  0  0  0  0  0  0  0  0  0
    3.3712   -0.1636    0.6356 O   0  0  0  0  0  0  0  0  0  0  0  0
    2.2462    1.7569   -0.2959 O   0  0  0  0  0  0  0  0  0  0  0  0
   -3.3167    1.7465    0.4445 H   0  0  0  0  0  0  0  0  0  0  0  0
   -2.0340    0.8178    1.2426 H   0  0  0  0  0  0  0  0  0  0  0  0
   -3.7225    0.3645    1.4777 H   0  0  0  0  0  0  0  0  0  0  0  0
   -3.9629   -0.3505   -0.8939 H   0  0  0  0  0  0  0  0  0  0  0  0
   -2.0686   -1.4245   -1.8578 H   0  0  0  0  0  0  0  0  0  0  0  0
   -0.3943   -2.6971    0.0777 H   0  0  0  0  0  0  0  0  0  0  0  0
    1.9749   -2.5104    0.8280 H   0  0  0  0  0  0  0  0  0  0  0  0
   -0.3473    1.4711   -1.1006 H   0  0  0  0  0  0  0  0  0  0  0  0
    3.7150    1.8102    1.1647 H   0  0  0  0  0  0  0  0  0  0  0  0
    4.2702    1.3459   -0.4629 H   0  0  0  0  0  0  0  0  0  0  0  0
  1  2  1  0
  2  3  2  3
  3  8  1  0
  4  5  2  0
  4  8  1  0
  5  9  1  0
  6  8  2  0
  6 10  1  0
  7 11  1  0
  7 12  1  0
  9 10  2  0
  9 11  1  0
 10 12  1  0
  1 13  1  0
  1 14  1  0
  1 15  1  0
  2 16  1  0
  3 17  1  0
  4 18  1  0
  5 19  1  0
  6 20  1  0
  7 21  1  0
  7 22  1  0
M  END
