
     RDKit          3D

 24 25  0  0  0  0  0  0  0  0999 V2000
   -2.2386   -1.9885   -0.0853 C   0  0  0  0  0  0  0  0  0  0  0  0
   -0.9704   -1.4587   -0.3527 C   0  0  0  0  0  0  0  0  0  0  0  0
    1.7601    0.3594   -0.8193 C   0  0  0  0  0  0  0  0  0  0  0  0
    2.5950   -0.1897    0.3436 C   0  0  0  0  0  0  0  0  0  0  0  0
   -3.0879    0.2214    0.4828 C   0  0  0  0  0  0  0  0  0  0  0  0
   -0.0189    2.0610   -0.0781 C   0  0  0  0  0  0  0  0  0  0  0  0
    0.3893    0.7769   -0.3832 C   0  0  0  0  0  0  0  0  0  0  0  0
   -3.2751   -1.1549    0.3256 C   0  0  0  0  0  0  0  0  0  0  0  0
   -0.7487   -0.0736   -0.2029 C   0  0  0  0  0  0  0  0  0  0  0  0
   -1.8114    0.7307    0.2103 C   0  0  0  0  0  0  0  0  0  0  0  0
   -4.9800   -1.8987    0.6803 Br  0  0  0  0  0  0  0  0  0  0  0  0
    3.9368   -0.5785   -0.0938 N   0  0  0  0  0  0  0  0  0  0  0  0
   -1.3406    2.0212    0.2750 N   0  0  0  0  0  0  0  0  0  0  0  0
   -2.4012   -3.0567   -0.2035 H   0  0  0  0  0  0  0  0  0  0  0  0
   -0.1648   -2.1131   -0.6740 H   0  0  0  0  0  0  0  0  0  0  0  0
    1.6745   -0.3980   -1.6089 H   0  0  0  0  0  0  0  0  0  0  0  0
    2.2731    1.2195   -1.2693 H   0  0  0  0  0  0  0  0  0  0  0  0
    2.1019   -1.0650    0.7815 H   0  0  0  0  0  0  0  0  0  0  0  0
    2.6808    0.5625    1.1366 H   0  0  0  0  0  0  0  0  0  0  0  0
   -3.8962    0.8704    0.8020 H   0  0  0  0  0  0  0  0  0  0  0  0
    0.5198    2.9994   -0.0854 H   0  0  0  0  0  0  0  0  0  0  0  0
    4.4333    0.2428   -0.4376 H   0  0  0  0  0  0  0  0  0  0  0  0
    4.4652   -0.9114    0.7122 H   0  0  0  0  0  0  0  0  0  0  0  0
   -1.8961    2.8215    0.5440 H   0  0  0  0  0  0  0  0  0  0  0  0
  1  2  2  0
  1  8  1  0
  2  9  1  0
  3  4  1  0
  3  7  1  0
  4 12  1  0
  5  8  2  0
  5 10  1  0
  6  7  2  0
  6 13  1  0
  7  9  1  0
  8 11  1  0
  9 10  2  0
 10 13  1  0
  1 14  1  0
  2 15  1  0
  3 16  1  0
  3 17  1  0
  4 18  1  0
  4 19  1  0
  5 20  1  0
  6 21  1  0
 12 22  1  0
 12 23  1  0
 13 24  1  0
M  END
