
     RDKit          3D

 29 30  0  0  0  0  0  0  0  0999 V2000
   -3.9878   -0.3029    1.0280 C   0  0  0  0  0  0  0  0  0  0  0  0
    0.6657    0.4065   -0.3777 C   0  0  0  0  0  0  0  0  0  0  0  0
   -1.0825   -1.3383    1.1622 C   0  0  0  0  0  0  0  0  0  0  0  0
   -2.8937    1.3861   -0.4495 C   0  0  0  0  0  0  0  0  0  0  0  0
   -0.6669    0.5017   -0.3709 C   0  0  0  0  0  0  0  0  0  0  0  0
    1.3112   -0.6689    0.4261 C   0  0  0  0  0  0  0  0  0  0  0  0
   -1.5527   -0.3534    0.3938 C   0  0  0  0  0  0  0  0  0  0  0  0
    0.3757   -1.5631    1.2562 C   0  0  0  0  0  0  0  0  0  0  0  0
   -1.5096    1.4945   -1.1289 C   0  0  0  0  0  0  0  0  0  0  0  0
    4.7890   -0.2173   -0.0875 C   0  0  0  0  0  0  0  0  0  0  0  0
    5.4731   -0.7200    0.8680 N   0  0  0  0  0  0  0  0  0  0  0  0
    2.5833   -0.9221    0.5069 N   0  0  0  0  0  0  0  0  0  0  0  0
    3.4436   -0.1894   -0.2596 N   0  0  0  0  0  0  0  0  0  0  0  0
   -2.8583    0.0547    0.1849 N   0  0  0  0  0  0  0  0  0  0  0  0
    0.8150   -2.4434    1.9839 O   0  0  0  0  0  0  0  0  0  0  0  0
   -1.5805    1.0678   -2.4894 O   0  0  0  0  0  0  0  0  0  0  0  0
    5.4675    0.3716   -1.0735 O   0  0  0  0  0  0  0  0  0  0  0  0
   -4.0466   -1.3877    1.1629 H   0  0  0  0  0  0  0  0  0  0  0  0
   -3.9008    0.1712    2.0112 H   0  0  0  0  0  0  0  0  0  0  0  0
   -4.9279    0.0214    0.5695 H   0  0  0  0  0  0  0  0  0  0  0  0
    1.2755    1.0849   -0.9571 H   0  0  0  0  0  0  0  0  0  0  0  0
   -1.7126   -1.9917    1.7487 H   0  0  0  0  0  0  0  0  0  0  0  0
   -3.7172    1.4573   -1.1672 H   0  0  0  0  0  0  0  0  0  0  0  0
   -3.0034    2.1567    0.3229 H   0  0  0  0  0  0  0  0  0  0  0  0
   -1.1197    2.5159   -1.0986 H   0  0  0  0  0  0  0  0  0  0  0  0
    4.7646   -1.1303    1.4972 H   0  0  0  0  0  0  0  0  0  0  0  0
    3.1826    0.0757   -1.2049 H   0  0  0  0  0  0  0  0  0  0  0  0
   -1.9913    0.1826   -2.4721 H   0  0  0  0  0  0  0  0  0  0  0  0
    6.4048    0.2798   -0.8286 H   0  0  0  0  0  0  0  0  0  0  0  0
  1 14  1  0
  2  5  2  0
  2  6  1  0
  3  7  2  0
  3  8  1  0
  4  9  1  0
  4 14  1  0
  5  7  1  0
  5  9  1  0
  6  8  1  0
  6 12  2  3
  7 14  1  0
  8 15  2  0
  9 16  1  0
 10 11  2  3
 10 13  1  0
 10 17  1  0
 12 13  1  0
  1 18  1  0
  1 19  1  0
  1 20  1  0
  2 21  1  0
  3 22  1  0
  4 23  1  0
  4 24  1  0
  9 25  1  0
 11 26  1  0
 13 27  1  0
 16 28  1  0
 17 29  1  0
M  END
