
     RDKit          3D

 26 27  0  0  0  0  0  0  0  0999 V2000
    3.8552   -0.1551    0.4477 C   0  0  0  0  0  0  0  0  0  0  0  0
    3.1452    0.8078    1.1531 C   0  0  0  0  0  0  0  0  0  0  0  0
    3.1642   -1.0796   -0.3251 C   0  0  0  0  0  0  0  0  0  0  0  0
    1.7470    0.8432    1.0793 C   0  0  0  0  0  0  0  0  0  0  0  0
    1.7653   -1.0364   -0.3907 C   0  0  0  0  0  0  0  0  0  0  0  0
   -2.6123   -1.0865    0.2300 C   0  0  0  0  0  0  0  0  0  0  0  0
   -2.4204    1.2764   -0.3192 C   0  0  0  0  0  0  0  0  0  0  0  0
   -1.1591   -1.1476   -0.2943 C   0  0  0  0  0  0  0  0  0  0  0  0
   -1.0921    1.2333    0.4717 C   0  0  0  0  0  0  0  0  0  0  0  0
    1.0156   -0.0725    0.3031 C   0  0  0  0  0  0  0  0  0  0  0  0
   -3.3469    0.1583   -0.0695 N   0  0  0  0  0  0  0  0  0  0  0  0
   -0.3693   -0.0301    0.2458 N   0  0  0  0  0  0  0  0  0  0  0  0
    4.9395   -0.1866    0.5018 H   0  0  0  0  0  0  0  0  0  0  0  0
    3.6720    1.5317    1.7687 H   0  0  0  0  0  0  0  0  0  0  0  0
    3.7072   -1.8371   -0.8835 H   0  0  0  0  0  0  0  0  0  0  0  0
    1.2327    1.5968    1.6690 H   0  0  0  0  0  0  0  0  0  0  0  0
    1.2739   -1.7700   -1.0229 H   0  0  0  0  0  0  0  0  0  0  0  0
   -3.1824   -1.9297   -0.1745 H   0  0  0  0  0  0  0  0  0  0  0  0
   -2.5890   -1.2133    1.3203 H   0  0  0  0  0  0  0  0  0  0  0  0
   -2.1912    1.2862   -1.3924 H   0  0  0  0  0  0  0  0  0  0  0  0
   -2.9397    2.2182   -0.1083 H   0  0  0  0  0  0  0  0  0  0  0  0
   -1.1522   -1.1147   -1.3906 H   0  0  0  0  0  0  0  0  0  0  0  0
   -0.7383   -2.1091    0.0235 H   0  0  0  0  0  0  0  0  0  0  0  0
   -0.4933    2.0936    0.1484 H   0  0  0  0  0  0  0  0  0  0  0  0
   -1.2973    1.3434    1.5433 H   0  0  0  0  0  0  0  0  0  0  0  0
   -3.9345    0.3791    0.7339 H   0  0  0  0  0  0  0  0  0  0  0  0
  1  2  2  0
  1  3  1  0
  2  4  1  0
  3  5  2  0
  4 10  2  0
  5 10  1  0
  6  8  1  0
  6 11  1  0
  7  9  1  0
  7 11  1  0
  8 12  1  0
  9 12  1  0
 10 12  1  0
  1 13  1  0
  2 14  1  0
  3 15  1  0
  4 16  1  0
  5 17  1  0
  6 18  1  0
  6 19  1  0
  7 20  1  0
  7 21  1  0
  8 22  1  0
  8 23  1  0
  9 24  1  0
  9 25  1  0
 11 26  1  0
M  END
