
     RDKit          3D

 25 26  0  0  0  0  0  0  0  0999 V2000
   -0.3887    0.6163   -0.7582 C   0  0  0  0  0  0  0  0  0  0  0  0
   -0.8702   -1.1958    0.7601 C   0  0  0  0  0  0  0  0  0  0  0  0
   -1.7455    0.9480   -0.7936 C   0  0  0  0  0  0  0  0  0  0  0  0
   -2.2273   -0.8644    0.7250 C   0  0  0  0  0  0  0  0  0  0  0  0
    2.2777   -0.0742    1.1990 C   0  0  0  0  0  0  0  0  0  0  0  0
    0.0644   -0.4629    0.0139 C   0  0  0  0  0  0  0  0  0  0  0  0
   -2.6809    0.2060   -0.0590 C   0  0  0  0  0  0  0  0  0  0  0  0
    1.5307   -0.8226    0.0888 C   0  0  0  0  0  0  0  0  0  0  0  0
    3.4460    0.0217   -0.7504 C   0  0  0  0  0  0  0  0  0  0  0  0
   -4.1435    0.5767   -0.0799 C   0  0  0  0  0  0  0  0  0  0  0  0
   -4.4660    1.4583    0.9065 F   0  0  0  0  0  0  0  0  0  0  0  0
   -4.9683   -0.4942    0.0924 F   0  0  0  0  0  0  0  0  0  0  0  0
   -4.5333    1.1613   -1.2469 F   0  0  0  0  0  0  0  0  0  0  0  0
    4.2766    0.4265   -1.6294 N   0  0  0  0  0  0  0  0  0  0  0  0
    3.5758    0.0654    0.5946 N   0  0  0  0  0  0  0  0  0  0  0  0
    2.2382   -0.4724   -1.1224 O   0  0  0  0  0  0  0  0  0  0  0  0
    0.3138    1.2081   -1.3438 H   0  0  0  0  0  0  0  0  0  0  0  0
   -0.5502   -2.0368    1.3733 H   0  0  0  0  0  0  0  0  0  0  0  0
   -2.0708    1.7900   -1.4037 H   0  0  0  0  0  0  0  0  0  0  0  0
   -2.9346   -1.4502    1.3113 H   0  0  0  0  0  0  0  0  0  0  0  0
    2.3068   -0.6393    2.1350 H   0  0  0  0  0  0  0  0  0  0  0  0
    1.8516    0.9162    1.3958 H   0  0  0  0  0  0  0  0  0  0  0  0
    1.6405   -1.9089    0.2034 H   0  0  0  0  0  0  0  0  0  0  0  0
    3.8437    0.2511   -2.5427 H   0  0  0  0  0  0  0  0  0  0  0  0
    4.2135    0.7763    0.9309 H   0  0  0  0  0  0  0  0  0  0  0  0
  1  3  2  0
  1  6  1  0
  2  4  1  0
  2  6  2  0
  3  7  1  0
  4  7  2  0
  5  8  1  0
  5 15  1  0
  6  8  1  0
  7 10  1  0
  8 16  1  0
  9 14  2  3
  9 15  1  0
  9 16  1  0
 10 11  1  0
 10 12  1  0
 10 13  1  0
  1 17  1  0
  2 18  1  0
  3 19  1  0
  4 20  1  0
  5 21  1  0
  5 22  1  0
  8 23  1  0
 14 24  1  0
 15 25  1  0
M  END
