
     RDKit          3D

 21 21  0  0  0  0  0  0  0  0999 V2000
    2.7634   -1.9472   -0.0720 C   0  0  0  0  0  0  0  0  0  0  0  0
   -2.0288    2.5259    0.3408 C   0  0  0  0  0  0  0  0  0  0  0  0
   -1.3320    2.4149   -0.8597 C   0  0  0  0  0  0  0  0  0  0  0  0
   -1.9395    1.5127    1.2917 C   0  0  0  0  0  0  0  0  0  0  0  0
   -0.5449    1.2891   -1.1119 C   0  0  0  0  0  0  0  0  0  0  0  0
   -1.1546    0.3854    1.0429 C   0  0  0  0  0  0  0  0  0  0  0  0
   -0.3779   -2.2167   -0.4596 C   0  0  0  0  0  0  0  0  0  0  0  0
    1.6050   -1.1408    0.4693 C   0  0  0  0  0  0  0  0  0  0  0  0
   -0.4446    0.2565   -0.1632 C   0  0  0  0  0  0  0  0  0  0  0  0
    0.4064   -0.9703   -0.4602 C   0  0  0  0  0  0  0  0  0  0  0  0
   -0.9628   -3.2196   -0.4849 N   0  0  0  0  0  0  0  0  0  0  0  0
    1.6589   -0.6824    1.6116 O   0  0  0  0  0  0  0  0  0  0  0  0
    3.1276   -1.4925   -0.9967 H   0  0  0  0  0  0  0  0  0  0  0  0
    2.4487   -2.9771   -0.2551 H   0  0  0  0  0  0  0  0  0  0  0  0
    3.5790   -1.9527    0.6567 H   0  0  0  0  0  0  0  0  0  0  0  0
   -2.6399    3.4030    0.5375 H   0  0  0  0  0  0  0  0  0  0  0  0
   -1.4024    3.2072   -1.6009 H   0  0  0  0  0  0  0  0  0  0  0  0
   -2.4784    1.6002    2.2320 H   0  0  0  0  0  0  0  0  0  0  0  0
   -0.0148    1.2311   -2.0604 H   0  0  0  0  0  0  0  0  0  0  0  0
   -1.0944   -0.3867    1.8093 H   0  0  0  0  0  0  0  0  0  0  0  0
    0.8261   -0.8401   -1.4672 H   0  0  0  0  0  0  0  0  0  0  0  0
  1  8  1  0
  2  3  2  0
  2  4  1  0
  3  5  1  0
  4  6  2  0
  5  9  2  0
  6  9  1  0
  7 10  1  0
  7 11  3  0
  8 10  1  0
  8 12  2  0
  9 10  1  0
  1 13  1  0
  1 14  1  0
  1 15  1  0
  2 16  1  0
  3 17  1  0
  4 18  1  0
  5 19  1  0
  6 20  1  0
 10 21  1  0
M  END
