
     RDKit          3D

 34 34  0  0  0  0  0  0  0  0999 V2000
    3.7457   -1.3058   -0.0755 C   0  0  0  0  0  0  0  0  0  0  0  0
   -3.7664    1.6821   -0.2860 C   0  0  0  0  0  0  0  0  0  0  0  0
    2.9495    2.8014   -0.1482 C   0  0  0  0  0  0  0  0  0  0  0  0
   -0.9051   -3.4576    0.5185 C   0  0  0  0  0  0  0  0  0  0  0  0
    1.2878   -1.6918    0.3075 C   0  0  0  0  0  0  0  0  0  0  0  0
   -1.6785    0.6879    0.7057 C   0  0  0  0  0  0  0  0  0  0  0  0
    0.7833    1.0451    0.3173 C   0  0  0  0  0  0  0  0  0  0  0  0
    2.3481   -0.7863    0.1253 C   0  0  0  0  0  0  0  0  0  0  0  0
   -2.3968    1.0795   -0.6061 C   0  0  0  0  0  0  0  0  0  0  0  0
   -0.2790    0.1401    0.5084 C   0  0  0  0  0  0  0  0  0  0  0  0
    2.0910    0.5932    0.1248 C   0  0  0  0  0  0  0  0  0  0  0  0
   -0.0231   -1.2414    0.4928 C   0  0  0  0  0  0  0  0  0  0  0  0
   -2.5646   -0.0552   -1.5196 N   0  0  0  0  0  0  0  0  0  0  0  0
    3.1813    1.4016   -0.0652 O   0  0  0  0  0  0  0  0  0  0  0  0
   -1.1087   -2.0595    0.6756 O   0  0  0  0  0  0  0  0  0  0  0  0
    4.4086   -0.9242    0.7079 H   0  0  0  0  0  0  0  0  0  0  0  0
    4.1260   -1.0003   -1.0557 H   0  0  0  0  0  0  0  0  0  0  0  0
    3.7796   -2.3995   -0.0326 H   0  0  0  0  0  0  0  0  0  0  0  0
   -4.2731    2.0162   -1.1983 H   0  0  0  0  0  0  0  0  0  0  0  0
   -3.6621    2.5534    0.3697 H   0  0  0  0  0  0  0  0  0  0  0  0
   -4.4164    0.9570    0.2166 H   0  0  0  0  0  0  0  0  0  0  0  0
    2.2846    3.0445   -0.9836 H   0  0  0  0  0  0  0  0  0  0  0  0
    3.9111    3.2884   -0.3370 H   0  0  0  0  0  0  0  0  0  0  0  0
    2.5595    3.1928    0.7971 H   0  0  0  0  0  0  0  0  0  0  0  0
   -1.8770   -3.9495    0.6233 H   0  0  0  0  0  0  0  0  0  0  0  0
   -0.5195   -3.6942   -0.4787 H   0  0  0  0  0  0  0  0  0  0  0  0
   -0.2492   -3.8496    1.3025 H   0  0  0  0  0  0  0  0  0  0  0  0
    1.5167   -2.7524    0.3015 H   0  0  0  0  0  0  0  0  0  0  0  0
   -1.6073    1.5717    1.3550 H   0  0  0  0  0  0  0  0  0  0  0  0
   -2.2898   -0.0242    1.2750 H   0  0  0  0  0  0  0  0  0  0  0  0
    0.5548    2.1059    0.3238 H   0  0  0  0  0  0  0  0  0  0  0  0
   -1.8041    1.8393   -1.1293 H   0  0  0  0  0  0  0  0  0  0  0  0
   -3.3505    0.0940   -2.1475 H   0  0  0  0  0  0  0  0  0  0  0  0
   -2.7565   -0.9027   -0.9847 H   0  0  0  0  0  0  0  0  0  0  0  0
  1  8  1  0
  2  9  1  0
  3 14  1  0
  4 15  1  0
  5  8  2  0
  5 12  1  0
  6  9  1  0
  6 10  1  0
  7 10  1  0
  7 11  2  0
  8 11  1  0
  9 13  1  0
 10 12  2  0
 11 14  1  0
 12 15  1  0
  1 16  1  0
  1 17  1  0
  1 18  1  0
  2 19  1  0
  2 20  1  0
  2 21  1  0
  3 22  1  0
  3 23  1  0
  3 24  1  0
  4 25  1  0
  4 26  1  0
  4 27  1  0
  5 28  1  0
  6 29  1  0
  6 30  1  0
  7 31  1  0
  9 32  1  0
 13 33  1  0
 13 34  1  0
M  END
