
     RDKit          3D

 27 28  0  0  0  0  0  0  0  0999 V2000
    4.6929    0.8705   -0.0367 C   0  0  0  0  0  0  0  0  0  0  0  0
    3.3218    0.2176   -0.0101 C   0  0  0  0  0  0  0  0  0  0  0  0
   -3.5457   -0.0288   -2.1155 C   0  0  0  0  0  0  0  0  0  0  0  0
   -3.8852   -0.6863   -0.9361 C   0  0  0  0  0  0  0  0  0  0  0  0
   -2.2299    0.3731   -2.3319 C   0  0  0  0  0  0  0  0  0  0  0  0
   -2.9078   -0.9434    0.0270 C   0  0  0  0  0  0  0  0  0  0  0  0
   -1.2506    0.1171   -1.3694 C   0  0  0  0  0  0  0  0  0  0  0  0
   -1.5750   -0.5475   -0.1764 C   0  0  0  0  0  0  0  0  0  0  0  0
   -0.5484   -0.8354    0.8922 C   0  0  0  0  0  0  0  0  0  0  0  0
   -0.5390    0.1260    2.0183 C   0  0  0  0  0  0  0  0  0  0  0  0
    1.3691    0.3439    1.2284 C   0  0  0  0  0  0  0  0  0  0  0  0
    2.5568    0.7983    1.0907 N   0  0  0  0  0  0  0  0  0  0  0  0
    0.5380    0.7887    2.2097 N   0  0  0  0  0  0  0  0  0  0  0  0
   -1.5901    0.2787    2.8145 O   0  0  0  0  0  0  0  0  0  0  0  0
    0.8028   -0.6137    0.4420 O   0  0  0  0  0  0  0  0  0  0  0  0
    5.2247    0.7018    0.9056 H   0  0  0  0  0  0  0  0  0  0  0  0
    5.2970    0.4594   -0.8512 H   0  0  0  0  0  0  0  0  0  0  0  0
    4.6079    1.9525   -0.1831 H   0  0  0  0  0  0  0  0  0  0  0  0
    2.8221    0.3975   -0.9693 H   0  0  0  0  0  0  0  0  0  0  0  0
    3.4435   -0.8632    0.1283 H   0  0  0  0  0  0  0  0  0  0  0  0
   -4.3063    0.1725   -2.8653 H   0  0  0  0  0  0  0  0  0  0  0  0
   -4.9127   -0.9971   -0.7642 H   0  0  0  0  0  0  0  0  0  0  0  0
   -1.9640    0.8882   -3.2517 H   0  0  0  0  0  0  0  0  0  0  0  0
   -3.1969   -1.4522    0.9453 H   0  0  0  0  0  0  0  0  0  0  0  0
   -0.2315    0.4441   -1.5667 H   0  0  0  0  0  0  0  0  0  0  0  0
   -0.6206   -1.8653    1.2557 H   0  0  0  0  0  0  0  0  0  0  0  0
   -1.3730    0.9650    3.4700 H   0  0  0  0  0  0  0  0  0  0  0  0
  1  2  1  0
  2 12  1  0
  3  4  2  0
  3  5  1  0
  4  6  1  0
  5  7  2  0
  6  8  2  0
  7  8  1  0
  8  9  1  0
  9 10  1  0
  9 15  1  0
 10 13  2  0
 10 14  1  0
 11 12  2  3
 11 13  1  0
 11 15  1  0
  1 16  1  0
  1 17  1  0
  1 18  1  0
  2 19  1  0
  2 20  1  0
  3 21  1  0
  4 22  1  0
  5 23  1  0
  6 24  1  0
  7 25  1  0
  9 26  1  0
 14 27  1  0
M  END
