
     RDKit          3D

 28 28  0  0  0  0  0  0  0  0999 V2000
   -4.1697    0.6060    0.1294 C   0  0  0  0  0  0  0  0  0  0  0  0
   -0.9489    1.7030   -0.1682 C   0  0  0  0  0  0  0  0  0  0  0  0
   -3.0993   -0.1626    0.8919 C   0  0  0  0  0  0  0  0  0  0  0  0
    2.2444    0.1432    0.6599 C   0  0  0  0  0  0  0  0  0  0  0  0
    2.4899   -1.3825   -1.2053 C   0  0  0  0  0  0  0  0  0  0  0  0
    3.5901   -0.0534    0.9864 C   0  0  0  0  0  0  0  0  0  0  0  0
    3.8330   -1.5762   -0.8756 C   0  0  0  0  0  0  0  0  0  0  0  0
   -0.7637    0.2217    0.1558 C   0  0  0  0  0  0  0  0  0  0  0  0
    1.6830   -0.5272   -0.4360 C   0  0  0  0  0  0  0  0  0  0  0  0
    4.3700   -0.9109    0.2185 C   0  0  0  0  0  0  0  0  0  0  0  0
    0.2546   -0.3581   -0.8449 C   0  0  0  0  0  0  0  0  0  0  0  0
    5.6577   -1.0931    0.5366 F   0  0  0  0  0  0  0  0  0  0  0  0
   -1.9960   -0.5782    0.0364 N   0  0  0  0  0  0  0  0  0  0  0  0
   -0.0744   -0.6730   -1.9918 O   0  0  0  0  0  0  0  0  0  0  0  0
   -3.7834    1.5400   -0.2879 H   0  0  0  0  0  0  0  0  0  0  0  0
   -4.9990    0.8563    0.7991 H   0  0  0  0  0  0  0  0  0  0  0  0
   -4.5751    0.0066   -0.6930 H   0  0  0  0  0  0  0  0  0  0  0  0
   -1.5827    2.2009    0.5721 H   0  0  0  0  0  0  0  0  0  0  0  0
    0.0141    2.2252   -0.1780 H   0  0  0  0  0  0  0  0  0  0  0  0
   -1.3988    1.8426   -1.1578 H   0  0  0  0  0  0  0  0  0  0  0  0
   -2.7554    0.4145    1.7580 H   0  0  0  0  0  0  0  0  0  0  0  0
   -3.5627   -1.0698    1.2964 H   0  0  0  0  0  0  0  0  0  0  0  0
    1.6681    0.8335    1.2680 H   0  0  0  0  0  0  0  0  0  0  0  0
    2.0718   -1.9045   -2.0649 H   0  0  0  0  0  0  0  0  0  0  0  0
    4.0369    0.4603    1.8325 H   0  0  0  0  0  0  0  0  0  0  0  0
    4.4585   -2.2386   -1.4658 H   0  0  0  0  0  0  0  0  0  0  0  0
   -0.3905    0.0968    1.1764 H   0  0  0  0  0  0  0  0  0  0  0  0
   -2.2725   -0.6228   -0.9480 H   0  0  0  0  0  0  0  0  0  0  0  0
  1  3  1  0
  2  8  1  0
  3 13  1  0
  4  6  2  0
  4  9  1  0
  5  7  1  0
  5  9  2  0
  6 10  1  0
  7 10  2  0
  8 11  1  0
  8 13  1  0
  9 11  1  0
 10 12  1  0
 11 14  2  0
  1 15  1  0
  1 16  1  0
  1 17  1  0
  2 18  1  0
  2 19  1  0
  2 20  1  0
  3 21  1  0
  3 22  1  0
  4 23  1  0
  5 24  1  0
  6 25  1  0
  7 26  1  0
  8 27  1  0
 13 28  1  0
M  END
