
     RDKit          3D

 29 29  0  0  0  0  0  0  0  0999 V2000
   -1.8001    2.8746    1.1242 C   0  0  0  0  0  0  0  0  0  0  0  0
    3.3376   -1.9758   -1.0510 C   0  0  0  0  0  0  0  0  0  0  0  0
   -1.6599   -0.6933   -1.1250 C   0  0  0  0  0  0  0  0  0  0  0  0
   -2.2007   -1.8385   -0.2540 C   0  0  0  0  0  0  0  0  0  0  0  0
    0.8321   -0.6907   -0.7669 C   0  0  0  0  0  0  0  0  0  0  0  0
    0.7315    1.7245    0.6196 C   0  0  0  0  0  0  0  0  0  0  0  0
    3.1489    1.6831    0.9501 C   0  0  0  0  0  0  0  0  0  0  0  0
   -0.4050   -0.0418   -0.5785 C   0  0  0  0  0  0  0  0  0  0  0  0
    1.9603    1.0733    0.4238 C   0  0  0  0  0  0  0  0  0  0  0  0
   -0.4536    1.1727    0.1285 C   0  0  0  0  0  0  0  0  0  0  0  0
    2.0176   -0.1431   -0.2696 C   0  0  0  0  0  0  0  0  0  0  0  0
   -2.5856   -1.4177    1.0906 N   0  0  0  0  0  0  0  0  0  0  0  0
    4.0815    2.2163    1.3918 N   0  0  0  0  0  0  0  0  0  0  0  0
   -1.6923    1.7407    0.2725 O   0  0  0  0  0  0  0  0  0  0  0  0
    3.2575   -0.7077   -0.4123 O   0  0  0  0  0  0  0  0  0  0  0  0
   -1.4500    2.6465    2.1365 H   0  0  0  0  0  0  0  0  0  0  0  0
   -2.8591    3.1418    1.1911 H   0  0  0  0  0  0  0  0  0  0  0  0
   -1.2669    3.7330    0.7031 H   0  0  0  0  0  0  0  0  0  0  0  0
    4.3869   -2.2862   -1.0467 H   0  0  0  0  0  0  0  0  0  0  0  0
    2.7646   -2.7314   -0.5035 H   0  0  0  0  0  0  0  0  0  0  0  0
    3.0140   -1.9113   -2.0949 H   0  0  0  0  0  0  0  0  0  0  0  0
   -1.4363   -1.0872   -2.1255 H   0  0  0  0  0  0  0  0  0  0  0  0
   -2.4466    0.0535   -1.2878 H   0  0  0  0  0  0  0  0  0  0  0  0
   -1.4563   -2.6378   -0.1709 H   0  0  0  0  0  0  0  0  0  0  0  0
   -3.0792   -2.2641   -0.7524 H   0  0  0  0  0  0  0  0  0  0  0  0
    0.8351   -1.6314   -1.3093 H   0  0  0  0  0  0  0  0  0  0  0  0
    0.7311    2.6668    1.1600 H   0  0  0  0  0  0  0  0  0  0  0  0
   -3.1187   -0.5498    1.0412 H   0  0  0  0  0  0  0  0  0  0  0  0
   -3.1887   -2.1190    1.5154 H   0  0  0  0  0  0  0  0  0  0  0  0
  1 14  1  0
  2 15  1  0
  3  4  1  0
  3  8  1  0
  4 12  1  0
  5  8  2  0
  5 11  1  0
  6  9  1  0
  6 10  2  0
  7  9  1  0
  7 13  3  0
  8 10  1  0
  9 11  2  0
 10 14  1  0
 11 15  1  0
  1 16  1  0
  1 17  1  0
  1 18  1  0
  2 19  1  0
  2 20  1  0
  2 21  1  0
  3 22  1  0
  3 23  1  0
  4 24  1  0
  4 25  1  0
  5 26  1  0
  6 27  1  0
 12 28  1  0
 12 29  1  0
M  END
