
     RDKit          3D

 30 31  0  0  0  0  0  0  0  0999 V2000
   -3.3088    0.1253    0.4712 C   0  0  0  0  0  0  0  0  0  0  0  0
    3.2026   -1.8322    1.4443 C   0  0  0  0  0  0  0  0  0  0  0  0
    2.1248    2.4833   -0.4092 C   0  0  0  0  0  0  0  0  0  0  0  0
    2.9711    1.5878    0.2569 C   0  0  0  0  0  0  0  0  0  0  0  0
    1.3555   -0.2107    0.0382 C   0  0  0  0  0  0  0  0  0  0  0  0
   -0.2225    2.5825   -1.5426 C   0  0  0  0  0  0  0  0  0  0  0  0
   -1.5584   -0.6272   -1.2207 C   0  0  0  0  0  0  0  0  0  0  0  0
   -2.2677   -0.9354    0.1106 C   0  0  0  0  0  0  0  0  0  0  0  0
    0.8763    2.0231   -0.8562 C   0  0  0  0  0  0  0  0  0  0  0  0
    2.5973    0.2601    0.4817 C   0  0  0  0  0  0  0  0  0  0  0  0
    0.5143    0.6984   -0.6283 C   0  0  0  0  0  0  0  0  0  0  0  0
   -2.9414   -2.2451    0.0719 N   0  0  0  0  0  0  0  0  0  0  0  0
   -1.2066    1.7040   -1.7445 N   0  0  0  0  0  0  0  0  0  0  0  0
   -0.7423    0.5727   -1.1742 N   0  0  0  0  0  0  0  0  0  0  0  0
    3.5370   -0.4825    1.1474 O   0  0  0  0  0  0  0  0  0  0  0  0
   -3.8276   -0.1353    1.4009 H   0  0  0  0  0  0  0  0  0  0  0  0
   -2.8395    1.1018    0.6283 H   0  0  0  0  0  0  0  0  0  0  0  0
   -4.0625    0.2334   -0.3168 H   0  0  0  0  0  0  0  0  0  0  0  0
    4.0435   -2.2731    1.9882 H   0  0  0  0  0  0  0  0  0  0  0  0
    2.3213   -1.8880    2.0918 H   0  0  0  0  0  0  0  0  0  0  0  0
    3.0579   -2.4131    0.5275 H   0  0  0  0  0  0  0  0  0  0  0  0
    2.4342    3.5109   -0.5734 H   0  0  0  0  0  0  0  0  0  0  0  0
    3.9407    1.9356    0.6077 H   0  0  0  0  0  0  0  0  0  0  0  0
    1.0352   -1.2327    0.1948 H   0  0  0  0  0  0  0  0  0  0  0  0
   -0.3411    3.5952   -1.9048 H   0  0  0  0  0  0  0  0  0  0  0  0
   -0.8895   -1.4497   -1.5029 H   0  0  0  0  0  0  0  0  0  0  0  0
   -2.2832   -0.5106   -2.0362 H   0  0  0  0  0  0  0  0  0  0  0  0
   -1.5284   -0.9743    0.9190 H   0  0  0  0  0  0  0  0  0  0  0  0
   -2.2944   -2.9740   -0.2248 H   0  0  0  0  0  0  0  0  0  0  0  0
   -3.6978   -2.2304   -0.6131 H   0  0  0  0  0  0  0  0  0  0  0  0
  1  8  1  0
  2 15  1  0
  3  4  2  0
  3  9  1  0
  4 10  1  0
  5 10  2  0
  5 11  1  0
  6  9  1  0
  6 13  2  0
  7  8  1  0
  7 14  1  0
  8 12  1  0
  9 11  2  0
 10 15  1  0
 11 14  1  0
 13 14  1  0
  1 16  1  0
  1 17  1  0
  1 18  1  0
  2 19  1  0
  2 20  1  0
  2 21  1  0
  3 22  1  0
  4 23  1  0
  5 24  1  0
  6 25  1  0
  7 26  1  0
  7 27  1  0
  8 28  1  0
 12 29  1  0
 12 30  1  0
M  END
