
     RDKit          3D

 32 33  0  0  0  0  0  0  0  0999 V2000
   -0.0021   -2.7877    0.2159 C   0  0  0  0  0  0  0  0  0  0  0  0
    2.3435    0.3271   -2.3918 C   0  0  0  0  0  0  0  0  0  0  0  0
    3.5388    0.3255   -1.6899 C   0  0  0  0  0  0  0  0  0  0  0  0
   -2.7572    1.5772    0.6661 C   0  0  0  0  0  0  0  0  0  0  0  0
   -1.9637    1.0234    1.8471 C   0  0  0  0  0  0  0  0  0  0  0  0
    1.1347    0.1122   -1.7210 C   0  0  0  0  0  0  0  0  0  0  0  0
    3.5231    0.0938   -0.3191 C   0  0  0  0  0  0  0  0  0  0  0  0
   -2.1290    1.2456   -0.6768 C   0  0  0  0  0  0  0  0  0  0  0  0
   -0.4980    0.7680    1.4879 C   0  0  0  0  0  0  0  0  0  0  0  0
    1.0757   -0.1018   -0.3223 C   0  0  0  0  0  0  0  0  0  0  0  0
    2.3138   -0.1252    0.3611 C   0  0  0  0  0  0  0  0  0  0  0  0
   -1.5061   -0.1317   -0.6217 C   0  0  0  0  0  0  0  0  0  0  0  0
   -0.2950   -0.3121    0.3692 C   0  0  0  0  0  0  0  0  0  0  0  0
    2.4780   -0.4606    2.0509 Cl  0  0  0  0  0  0  0  0  0  0  0  0
   -0.4324   -1.6484    1.0197 N   0  0  0  0  0  0  0  0  0  0  0  0
   -1.9406   -1.0253   -1.3527 O   0  0  0  0  0  0  0  0  0  0  0  0
   -0.5189   -2.8622   -0.7431 H   0  0  0  0  0  0  0  0  0  0  0  0
    1.0773   -2.7828    0.0399 H   0  0  0  0  0  0  0  0  0  0  0  0
   -0.2186   -3.7073    0.7702 H   0  0  0  0  0  0  0  0  0  0  0  0
    2.3447    0.4867   -3.4678 H   0  0  0  0  0  0  0  0  0  0  0  0
    4.4806    0.4875   -2.2072 H   0  0  0  0  0  0  0  0  0  0  0  0
   -3.7795    1.1824    0.7112 H   0  0  0  0  0  0  0  0  0  0  0  0
   -2.8467    2.6666    0.7545 H   0  0  0  0  0  0  0  0  0  0  0  0
   -2.0255    1.7256    2.6868 H   0  0  0  0  0  0  0  0  0  0  0  0
   -2.4265    0.0919    2.1948 H   0  0  0  0  0  0  0  0  0  0  0  0
    0.2382    0.1019   -2.3383 H   0  0  0  0  0  0  0  0  0  0  0  0
    4.4663    0.0721    0.2230 H   0  0  0  0  0  0  0  0  0  0  0  0
   -1.3494    1.9684   -0.9418 H   0  0  0  0  0  0  0  0  0  0  0  0
   -2.8822    1.2811   -1.4710 H   0  0  0  0  0  0  0  0  0  0  0  0
   -0.0430    1.7210    1.1831 H   0  0  0  0  0  0  0  0  0  0  0  0
    0.0104    0.4781    2.4135 H   0  0  0  0  0  0  0  0  0  0  0  0
   -1.4107   -1.7915    1.2698 H   0  0  0  0  0  0  0  0  0  0  0  0
  1 15  1  0
  2  3  2  0
  2  6  1  0
  3  7  1  0
  4  5  1  0
  4  8  1  0
  5  9  1  0
  6 10  2  0
  7 11  2  0
  8 12  1  0
  9 13  1  0
 10 11  1  0
 10 13  1  0
 11 14  1  0
 12 13  1  0
 12 16  2  0
 13 15  1  0
  1 17  1  0
  1 18  1  0
  1 19  1  0
  2 20  1  0
  3 21  1  0
  4 22  1  0
  4 23  1  0
  5 24  1  0
  5 25  1  0
  6 26  1  0
  7 27  1  0
  8 28  1  0
  8 29  1  0
  9 30  1  0
  9 31  1  0
 15 32  1  0
M  END
