
     RDKit          3D

 31 31  0  0  0  0  0  0  0  0999 V2000
   -2.7065   -2.4369    0.6604 C   0  0  0  0  0  0  0  0  0  0  0  0
   -1.2582    3.0484   -1.6568 C   0  0  0  0  0  0  0  0  0  0  0  0
    3.8594   -1.5458    1.0569 C   0  0  0  0  0  0  0  0  0  0  0  0
   -1.0196   -1.0434   -0.6066 C   0  0  0  0  0  0  0  0  0  0  0  0
    1.3657   -0.6066    0.0795 C   0  0  0  0  0  0  0  0  0  0  0  0
    1.1571    2.1075   -0.5389 C   0  0  0  0  0  0  0  0  0  0  0  0
   -1.9279   -1.1227    0.6407 C   0  0  0  0  0  0  0  0  0  0  0  0
    0.1524   -0.0915   -0.4267 C   0  0  0  0  0  0  0  0  0  0  0  0
    2.3464    1.5764   -0.0440 C   0  0  0  0  0  0  0  0  0  0  0  0
    0.0522    1.2794   -0.7339 C   0  0  0  0  0  0  0  0  0  0  0  0
    2.4709    0.2228    0.2713 C   0  0  0  0  0  0  0  0  0  0  0  0
    3.3873    2.4058    0.1315 F   0  0  0  0  0  0  0  0  0  0  0  0
   -2.8991   -0.0250    0.6765 N   0  0  0  0  0  0  0  0  0  0  0  0
   -1.1638    1.7063   -1.1952 O   0  0  0  0  0  0  0  0  0  0  0  0
    3.6901   -0.1680    0.7523 O   0  0  0  0  0  0  0  0  0  0  0  0
   -3.3488   -2.5022    1.5459 H   0  0  0  0  0  0  0  0  0  0  0  0
   -2.0214   -3.2913    0.6881 H   0  0  0  0  0  0  0  0  0  0  0  0
   -3.3403   -2.5420   -0.2275 H   0  0  0  0  0  0  0  0  0  0  0  0
   -1.1208    3.7563   -0.8331 H   0  0  0  0  0  0  0  0  0  0  0  0
   -2.2667    3.1939   -2.0555 H   0  0  0  0  0  0  0  0  0  0  0  0
   -0.5480    3.2405   -2.4679 H   0  0  0  0  0  0  0  0  0  0  0  0
    4.8850   -1.6865    1.4118 H   0  0  0  0  0  0  0  0  0  0  0  0
    3.1837   -1.8578    1.8600 H   0  0  0  0  0  0  0  0  0  0  0  0
    3.7277   -2.1670    0.1649 H   0  0  0  0  0  0  0  0  0  0  0  0
   -0.6126   -2.0391   -0.8304 H   0  0  0  0  0  0  0  0  0  0  0  0
   -1.5968   -0.7735   -1.5007 H   0  0  0  0  0  0  0  0  0  0  0  0
    1.4164   -1.6652    0.3154 H   0  0  0  0  0  0  0  0  0  0  0  0
    1.1372    3.1696   -0.7511 H   0  0  0  0  0  0  0  0  0  0  0  0
   -1.3123   -1.0729    1.5473 H   0  0  0  0  0  0  0  0  0  0  0  0
   -3.2656    0.0807    1.6204 H   0  0  0  0  0  0  0  0  0  0  0  0
   -2.4231    0.8501    0.4454 H   0  0  0  0  0  0  0  0  0  0  0  0
  1  7  1  0
  2 14  1  0
  3 15  1  0
  4  7  1  0
  4  8  1  0
  5  8  2  0
  5 11  1  0
  6  9  1  0
  6 10  2  0
  7 13  1  0
  8 10  1  0
  9 11  2  0
  9 12  1  0
 10 14  1  0
 11 15  1  0
  1 16  1  0
  1 17  1  0
  1 18  1  0
  2 19  1  0
  2 20  1  0
  2 21  1  0
  3 22  1  0
  3 23  1  0
  3 24  1  0
  4 25  1  0
  4 26  1  0
  5 27  1  0
  6 28  1  0
  7 29  1  0
 13 30  1  0
 13 31  1  0
M  END
