
     RDKit          3D

 29 30  0  0  0  0  0  0  0  0999 V2000
   -1.6012   -1.7497   -0.7055 C   0  0  0  0  0  0  0  0  0  0  0  0
   -3.4369    0.8768    1.3144 C   0  0  0  0  0  0  0  0  0  0  0  0
   -2.4274    1.7609    1.6629 C   0  0  0  0  0  0  0  0  0  0  0  0
   -3.1316   -0.2500    0.5531 C   0  0  0  0  0  0  0  0  0  0  0  0
   -1.1183    1.5048    1.2558 C   0  0  0  0  0  0  0  0  0  0  0  0
    2.7831   -0.8359    0.3642 C   0  0  0  0  0  0  0  0  0  0  0  0
    2.4670    0.9024   -1.2765 C   0  0  0  0  0  0  0  0  0  0  0  0
    1.2526   -1.0277    0.4873 C   0  0  0  0  0  0  0  0  0  0  0  0
    0.9289    0.7698   -1.1595 C   0  0  0  0  0  0  0  0  0  0  0  0
   -1.8137   -0.5126    0.1214 C   0  0  0  0  0  0  0  0  0  0  0  0
   -0.7784    0.3671    0.4963 C   0  0  0  0  0  0  0  0  0  0  0  0
    3.2009   -0.3431   -0.9661 N   0  0  0  0  0  0  0  0  0  0  0  0
    0.5756    0.2402    0.1714 N   0  0  0  0  0  0  0  0  0  0  0  0
   -1.2210   -2.5620   -0.0790 H   0  0  0  0  0  0  0  0  0  0  0  0
   -0.9154   -1.5649   -1.5357 H   0  0  0  0  0  0  0  0  0  0  0  0
   -2.5398   -2.0898   -1.1580 H   0  0  0  0  0  0  0  0  0  0  0  0
   -4.4596    1.0612    1.6307 H   0  0  0  0  0  0  0  0  0  0  0  0
   -2.6496    2.6441    2.2543 H   0  0  0  0  0  0  0  0  0  0  0  0
   -3.9380   -0.9307    0.2869 H   0  0  0  0  0  0  0  0  0  0  0  0
   -0.3315    2.1985    1.5455 H   0  0  0  0  0  0  0  0  0  0  0  0
    3.2801   -1.7936    0.5533 H   0  0  0  0  0  0  0  0  0  0  0  0
    3.1286   -0.1338    1.1336 H   0  0  0  0  0  0  0  0  0  0  0  0
    2.7220    1.2136   -2.2954 H   0  0  0  0  0  0  0  0  0  0  0  0
    2.8132    1.6957   -0.6017 H   0  0  0  0  0  0  0  0  0  0  0  0
    0.9542   -1.8265   -0.1984 H   0  0  0  0  0  0  0  0  0  0  0  0
    1.0149   -1.3429    1.5101 H   0  0  0  0  0  0  0  0  0  0  0  0
    0.5589    0.1077   -1.9511 H   0  0  0  0  0  0  0  0  0  0  0  0
    0.4832    1.7603   -1.3139 H   0  0  0  0  0  0  0  0  0  0  0  0
    4.1991   -0.1401   -0.9435 H   0  0  0  0  0  0  0  0  0  0  0  0
  1 10  1  0
  2  3  2  0
  2  4  1  0
  3  5  1  0
  4 10  2  0
  5 11  2  0
  6  8  1  0
  6 12  1  0
  7  9  1  0
  7 12  1  0
  8 13  1  0
  9 13  1  0
 10 11  1  0
 11 13  1  0
  1 14  1  0
  1 15  1  0
  1 16  1  0
  2 17  1  0
  3 18  1  0
  4 19  1  0
  5 20  1  0
  6 21  1  0
  6 22  1  0
  7 23  1  0
  7 24  1  0
  8 25  1  0
  8 26  1  0
  9 27  1  0
  9 28  1  0
 12 29  1  0
M  END
