
     RDKit          3D

 33 34  0  0  0  0  0  0  0  0999 V2000
    5.0565    0.5366    0.0825 C   0  0  0  0  0  0  0  0  0  0  0  0
   -4.9418    1.6354   -1.7822 C   0  0  0  0  0  0  0  0  0  0  0  0
   -3.7301   -0.4163   -0.2486 C   0  0  0  0  0  0  0  0  0  0  0  0
   -3.0890   -1.4101    0.5035 C   0  0  0  0  0  0  0  0  0  0  0  0
    1.4544    0.7136    0.6985 C   0  0  0  0  0  0  0  0  0  0  0  0
    2.1947    0.5348   -0.6315 C   0  0  0  0  0  0  0  0  0  0  0  0
   -1.6896    0.8803   -0.3541 C   0  0  0  0  0  0  0  0  0  0  0  0
    0.3670   -1.4435    1.5792 C   0  0  0  0  0  0  0  0  0  0  0  0
    4.2286   -0.6373   -0.3161 C   0  0  0  0  0  0  0  0  0  0  0  0
    0.3210   -0.2475    0.8892 C   0  0  0  0  0  0  0  0  0  0  0  0
   -3.0442    0.7196   -0.6768 C   0  0  0  0  0  0  0  0  0  0  0  0
   -1.0186   -0.1032    0.4019 C   0  0  0  0  0  0  0  0  0  0  0  0
   -1.7371   -1.2251    0.8118 C   0  0  0  0  0  0  0  0  0  0  0  0
    2.9916   -0.6974   -0.6344 N   0  0  0  0  0  0  0  0  0  0  0  0
   -0.8706   -2.0233    1.5205 N   0  0  0  0  0  0  0  0  0  0  0  0
    4.9057   -1.7914   -0.3504 O   0  0  0  0  0  0  0  0  0  0  0  0
   -3.5734    1.7465   -1.4134 O   0  0  0  0  0  0  0  0  0  0  0  0
    4.5683    1.0837    0.8927 H   0  0  0  0  0  0  0  0  0  0  0  0
    5.1966    1.1951   -0.7786 H   0  0  0  0  0  0  0  0  0  0  0  0
    6.0392    0.2101    0.4352 H   0  0  0  0  0  0  0  0  0  0  0  0
   -5.2041    2.5240   -2.3646 H   0  0  0  0  0  0  0  0  0  0  0  0
   -5.1101    0.7598   -2.4178 H   0  0  0  0  0  0  0  0  0  0  0  0
   -5.5884    1.6143   -0.8987 H   0  0  0  0  0  0  0  0  0  0  0  0
   -4.7787   -0.5672   -0.4836 H   0  0  0  0  0  0  0  0  0  0  0  0
   -3.6295   -2.2918    0.8318 H   0  0  0  0  0  0  0  0  0  0  0  0
    2.1565    0.6201    1.5362 H   0  0  0  0  0  0  0  0  0  0  0  0
    1.0561    1.7350    0.7435 H   0  0  0  0  0  0  0  0  0  0  0  0
    1.4803    0.4786   -1.4614 H   0  0  0  0  0  0  0  0  0  0  0  0
    2.8117    1.4186   -0.8295 H   0  0  0  0  0  0  0  0  0  0  0  0
   -1.1591    1.7658   -0.6907 H   0  0  0  0  0  0  0  0  0  0  0  0
    1.1824   -1.9321    2.0955 H   0  0  0  0  0  0  0  0  0  0  0  0
   -1.1174   -2.9107    1.9350 H   0  0  0  0  0  0  0  0  0  0  0  0
    4.2713   -2.4747   -0.6281 H   0  0  0  0  0  0  0  0  0  0  0  0
  1  9  1  0
  2 17  1  0
  3  4  2  0
  3 11  1  0
  4 13  1  0
  5  6  1  0
  5 10  1  0
  6 14  1  0
  7 11  2  0
  7 12  1  0
  8 10  2  0
  8 15  1  0
  9 14  2  3
  9 16  1  0
 10 12  1  0
 11 17  1  0
 12 13  2  0
 13 15  1  0
  1 18  1  0
  1 19  1  0
  1 20  1  0
  2 21  1  0
  2 22  1  0
  2 23  1  0
  3 24  1  0
  4 25  1  0
  5 26  1  0
  5 27  1  0
  6 28  1  0
  6 29  1  0
  7 30  1  0
  8 31  1  0
 15 32  1  0
 16 33  1  0
M  END
