
     RDKit          3D

 31 31  0  0  0  0  0  0  0  0999 V2000
    2.3672    2.4214   -0.6182 C   0  0  0  0  0  0  0  0  0  0  0  0
    3.5355   -1.5574   -0.0250 C   0  0  0  0  0  0  0  0  0  0  0  0
   -1.6268    3.4787    0.0671 C   0  0  0  0  0  0  0  0  0  0  0  0
   -1.5572   -1.6351    0.8603 C   0  0  0  0  0  0  0  0  0  0  0  0
   -2.1406   -2.3112   -0.3850 C   0  0  0  0  0  0  0  0  0  0  0  0
    0.8028   -0.9314    0.3018 C   0  0  0  0  0  0  0  0  0  0  0  0
   -0.9302    0.7543    0.3244 C   0  0  0  0  0  0  0  0  0  0  0  0
    1.3487    1.3701   -0.2509 C   0  0  0  0  0  0  0  0  0  0  0  0
   -0.5395   -0.5799    0.4955 C   0  0  0  0  0  0  0  0  0  0  0  0
    1.7499    0.0319   -0.0588 C   0  0  0  0  0  0  0  0  0  0  0  0
    0.0029    1.7321   -0.0350 C   0  0  0  0  0  0  0  0  0  0  0  0
   -3.1239   -3.3299   -0.0203 N   0  0  0  0  0  0  0  0  0  0  0  0
    3.0837   -0.2283   -0.2473 O   0  0  0  0  0  0  0  0  0  0  0  0
   -0.2955    3.0608   -0.2018 O   0  0  0  0  0  0  0  0  0  0  0  0
    1.9219    3.2244   -1.2145 H   0  0  0  0  0  0  0  0  0  0  0  0
    3.1729    2.0061   -1.2322 H   0  0  0  0  0  0  0  0  0  0  0  0
    2.7994    2.8522    0.2903 H   0  0  0  0  0  0  0  0  0  0  0  0
    4.6156   -1.5763   -0.1993 H   0  0  0  0  0  0  0  0  0  0  0  0
    3.3611   -1.8669    1.0108 H   0  0  0  0  0  0  0  0  0  0  0  0
    3.0733   -2.2544   -0.7317 H   0  0  0  0  0  0  0  0  0  0  0  0
   -2.3333    3.0154   -0.6294 H   0  0  0  0  0  0  0  0  0  0  0  0
   -1.9034    3.2766    1.1071 H   0  0  0  0  0  0  0  0  0  0  0  0
   -1.6739    4.5614   -0.0843 H   0  0  0  0  0  0  0  0  0  0  0  0
   -1.0867   -2.3814    1.5138 H   0  0  0  0  0  0  0  0  0  0  0  0
   -2.3584   -1.1777    1.4555 H   0  0  0  0  0  0  0  0  0  0  0  0
   -1.3419   -2.7855   -0.9665 H   0  0  0  0  0  0  0  0  0  0  0  0
   -2.6172   -1.5682   -1.0351 H   0  0  0  0  0  0  0  0  0  0  0  0
    1.0837   -1.9707    0.4414 H   0  0  0  0  0  0  0  0  0  0  0  0
   -1.9742    1.0065    0.4801 H   0  0  0  0  0  0  0  0  0  0  0  0
   -3.9109   -2.8920    0.4573 H   0  0  0  0  0  0  0  0  0  0  0  0
   -3.5050   -3.7455   -0.8700 H   0  0  0  0  0  0  0  0  0  0  0  0
  1  8  1  0
  2 13  1  0
  3 14  1  0
  4  5  1  0
  4  9  1  0
  5 12  1  0
  6  9  2  0
  6 10  1  0
  7  9  1  0
  7 11  2  0
  8 10  2  0
  8 11  1  0
 10 13  1  0
 11 14  1  0
  1 15  1  0
  1 16  1  0
  1 17  1  0
  2 18  1  0
  2 19  1  0
  2 20  1  0
  3 21  1  0
  3 22  1  0
  3 23  1  0
  4 24  1  0
  4 25  1  0
  5 26  1  0
  5 27  1  0
  6 28  1  0
  7 29  1  0
 12 30  1  0
 12 31  1  0
M  END
