
     RDKit          3D

 34 35  0  0  0  0  0  0  0  0999 V2000
   -1.3130   -2.6098   -0.8347 C   0  0  0  0  0  0  0  0  0  0  0  0
   -3.7759    2.7590   -0.5112 C   0  0  0  0  0  0  0  0  0  0  0  0
   -2.1864   -1.4245   -0.4400 C   0  0  0  0  0  0  0  0  0  0  0  0
   -3.0952    1.4585   -0.9119 C   0  0  0  0  0  0  0  0  0  0  0  0
    1.7534    0.0989    2.0903 C   0  0  0  0  0  0  0  0  0  0  0  0
    3.1435    0.2507    2.0514 C   0  0  0  0  0  0  0  0  0  0  0  0
    1.6902   -0.3919   -0.2953 C   0  0  0  0  0  0  0  0  0  0  0  0
    5.1608   -0.1032   -0.8054 C   0  0  0  0  0  0  0  0  0  0  0  0
    1.0193   -0.2128    0.9210 C   0  0  0  0  0  0  0  0  0  0  0  0
   -1.3727   -0.1446   -0.1713 C   0  0  0  0  0  0  0  0  0  0  0  0
    3.7684    0.0780    0.8375 C   0  0  0  0  0  0  0  0  0  0  0  0
    3.0620   -0.2358   -0.2999 C   0  0  0  0  0  0  0  0  0  0  0  0
   -0.4601   -0.3669    1.0538 C   0  0  0  0  0  0  0  0  0  0  0  0
   -2.2195    1.0188    0.1664 N   0  0  0  0  0  0  0  0  0  0  0  0
   -0.9274   -0.6443    2.1618 O   0  0  0  0  0  0  0  0  0  0  0  0
    5.1038    0.1809    0.6077 O   0  0  0  0  0  0  0  0  0  0  0  0
    3.8677   -0.3737   -1.3877 O   0  0  0  0  0  0  0  0  0  0  0  0
   -0.6343   -2.8979   -0.0264 H   0  0  0  0  0  0  0  0  0  0  0  0
   -1.9404   -3.4767   -1.0660 H   0  0  0  0  0  0  0  0  0  0  0  0
   -0.7173   -2.3786   -1.7234 H   0  0  0  0  0  0  0  0  0  0  0  0
   -4.3888    2.6265    0.3869 H   0  0  0  0  0  0  0  0  0  0  0  0
   -3.0408    3.5464   -0.3124 H   0  0  0  0  0  0  0  0  0  0  0  0
   -4.4305    3.1056   -1.3174 H   0  0  0  0  0  0  0  0  0  0  0  0
   -2.8965   -1.2578   -1.2574 H   0  0  0  0  0  0  0  0  0  0  0  0
   -2.7760   -1.6987    0.4437 H   0  0  0  0  0  0  0  0  0  0  0  0
   -2.5191    1.6293   -1.8281 H   0  0  0  0  0  0  0  0  0  0  0  0
   -3.8676    0.7131   -1.1255 H   0  0  0  0  0  0  0  0  0  0  0  0
    1.2327    0.2274    3.0388 H   0  0  0  0  0  0  0  0  0  0  0  0
    3.7078    0.4929    2.9449 H   0  0  0  0  0  0  0  0  0  0  0  0
    1.1893   -0.6624   -1.2156 H   0  0  0  0  0  0  0  0  0  0  0  0
    5.8049   -0.9761   -0.9622 H   0  0  0  0  0  0  0  0  0  0  0  0
    5.6033    0.7580   -1.3192 H   0  0  0  0  0  0  0  0  0  0  0  0
   -0.7826    0.1154   -1.0531 H   0  0  0  0  0  0  0  0  0  0  0  0
   -2.7630    0.7966    1.0048 H   0  0  0  0  0  0  0  0  0  0  0  0
  1  3  1  0
  2  4  1  0
  3 10  1  0
  4 14  1  0
  5  6  2  0
  5  9  1  0
  6 11  1  0
  7  9  2  0
  7 12  1  0
  8 16  1  0
  8 17  1  0
  9 13  1  0
 10 13  1  0
 10 14  1  0
 11 12  2  0
 11 16  1  0
 12 17  1  0
 13 15  2  0
  1 18  1  0
  1 19  1  0
  1 20  1  0
  2 21  1  0
  2 22  1  0
  2 23  1  0
  3 24  1  0
  3 25  1  0
  4 26  1  0
  4 27  1  0
  5 28  1  0
  6 29  1  0
  7 30  1  0
  8 31  1  0
  8 32  1  0
 10 33  1  0
 14 34  1  0
M  END
