
     RDKit          3D

 30 32  0  0  0  0  0  0  0  0999 V2000
    1.4588   -0.3303   -1.4337 C   0  0  0  0  0  0  0  0  0  0  0  0
    1.2427    2.2946    0.3167 C   0  0  0  0  0  0  0  0  0  0  0  0
   -2.8722   -1.6292    0.3248 C   0  0  0  0  0  0  0  0  0  0  0  0
    2.3639   -1.3997   -0.8061 C   0  0  0  0  0  0  0  0  0  0  0  0
    0.3823    3.3604    0.9891 C   0  0  0  0  0  0  0  0  0  0  0  0
   -2.3374   -2.3529   -0.9085 C   0  0  0  0  0  0  0  0  0  0  0  0
    0.2807    0.0445   -0.5760 C   0  0  0  0  0  0  0  0  0  0  0  0
    0.2252    1.2246    0.1627 C   0  0  0  0  0  0  0  0  0  0  0  0
   -1.9181   -0.4968    0.3674 C   0  0  0  0  0  0  0  0  0  0  0  0
   -1.9517    0.6680    1.1140 C   0  0  0  0  0  0  0  0  0  0  0  0
   -0.8257   -0.7907   -0.4527 C   0  0  0  0  0  0  0  0  0  0  0  0
   -0.8680    1.5240    0.9855 C   0  0  0  0  0  0  0  0  0  0  0  0
   -3.2701    1.0252    2.1529 Cl  0  0  0  0  0  0  0  0  0  0  0  0
    3.0736   -0.9114    0.3790 N   0  0  0  0  0  0  0  0  0  0  0  0
   -0.9477   -2.0014   -1.0948 O   0  0  0  0  0  0  0  0  0  0  0  0
   -0.7236    2.7162    1.6572 O   0  0  0  0  0  0  0  0  0  0  0  0
    2.0517    0.5582   -1.6820 H   0  0  0  0  0  0  0  0  0  0  0  0
    1.0832   -0.7020   -2.3961 H   0  0  0  0  0  0  0  0  0  0  0  0
    1.6608    2.6551   -0.6262 H   0  0  0  0  0  0  0  0  0  0  0  0
    2.0448    1.9606    0.9822 H   0  0  0  0  0  0  0  0  0  0  0  0
   -3.9159   -1.3319    0.1952 H   0  0  0  0  0  0  0  0  0  0  0  0
   -2.7647   -2.2474    1.2219 H   0  0  0  0  0  0  0  0  0  0  0  0
    3.1105   -1.7067   -1.5468 H   0  0  0  0  0  0  0  0  0  0  0  0
    1.7872   -2.2916   -0.5373 H   0  0  0  0  0  0  0  0  0  0  0  0
    0.9572    3.9425    1.7168 H   0  0  0  0  0  0  0  0  0  0  0  0
   -0.0330    4.0585    0.2507 H   0  0  0  0  0  0  0  0  0  0  0  0
   -2.8825   -2.0514   -1.8124 H   0  0  0  0  0  0  0  0  0  0  0  0
   -2.4261   -3.4395   -0.8082 H   0  0  0  0  0  0  0  0  0  0  0  0
    3.6274   -1.6739    0.7684 H   0  0  0  0  0  0  0  0  0  0  0  0
    2.3868   -0.6755    1.0965 H   0  0  0  0  0  0  0  0  0  0  0  0
  1  4  1  0
  1  7  1  0
  2  5  1  0
  2  8  1  0
  3  6  1  0
  3  9  1  0
  4 14  1  0
  5 16  1  0
  6 15  1  0
  7  8  1  0
  7 11  2  0
  8 12  2  0
  9 10  2  0
  9 11  1  0
 10 12  1  0
 10 13  1  0
 11 15  1  0
 12 16  1  0
  1 17  1  0
  1 18  1  0
  2 19  1  0
  2 20  1  0
  3 21  1  0
  3 22  1  0
  4 23  1  0
  4 24  1  0
  5 25  1  0
  5 26  1  0
  6 27  1  0
  6 28  1  0
 14 29  1  0
 14 30  1  0
M  END
