
     RDKit          3D

 32 34  0  0  0  0  0  0  0  0999 V2000
   -3.3268    1.1704    0.1817 C   0  0  0  0  0  0  0  0  0  0  0  0
    1.0779   -2.1718   -2.3649 C   0  0  0  0  0  0  0  0  0  0  0  0
    1.9240   -2.5040   -1.3018 C   0  0  0  0  0  0  0  0  0  0  0  0
    2.5342   -1.5119    2.0925 C   0  0  0  0  0  0  0  0  0  0  0  0
    2.3337   -0.0205    1.8911 C   0  0  0  0  0  0  0  0  0  0  0  0
   -0.7059   -0.4063   -3.0689 C   0  0  0  0  0  0  0  0  0  0  0  0
   -0.9445    1.8391   -0.4027 C   0  0  0  0  0  0  0  0  0  0  0  0
   -1.9173    1.4288    0.7171 C   0  0  0  0  0  0  0  0  0  0  0  0
    0.2501   -1.0407   -2.2485 C   0  0  0  0  0  0  0  0  0  0  0  0
    1.9462   -1.7291   -0.1443 C   0  0  0  0  0  0  0  0  0  0  0  0
    0.2935   -0.2672   -1.0885 C   0  0  0  0  0  0  0  0  0  0  0  0
    1.1464   -0.5793   -0.0178 C   0  0  0  0  0  0  0  0  0  0  0  0
   -1.9964    2.4814    1.7467 N   0  0  0  0  0  0  0  0  0  0  0  0
   -1.2361    0.6767   -2.5007 N   0  0  0  0  0  0  0  0  0  0  0  0
   -0.6175    0.7434   -1.3004 N   0  0  0  0  0  0  0  0  0  0  0  0
    2.8019   -2.1564    0.8435 O   0  0  0  0  0  0  0  0  0  0  0  0
    1.1662    0.2215    1.0983 O   0  0  0  0  0  0  0  0  0  0  0  0
   -4.0137    0.9069    0.9942 H   0  0  0  0  0  0  0  0  0  0  0  0
   -3.3325    0.3361   -0.5270 H   0  0  0  0  0  0  0  0  0  0  0  0
   -3.7309    2.0521   -0.3282 H   0  0  0  0  0  0  0  0  0  0  0  0
    1.0611   -2.7828   -3.2628 H   0  0  0  0  0  0  0  0  0  0  0  0
    2.5633   -3.3801   -1.3767 H   0  0  0  0  0  0  0  0  0  0  0  0
    3.3902   -1.6938    2.7498 H   0  0  0  0  0  0  0  0  0  0  0  0
    1.6503   -1.9793    2.5437 H   0  0  0  0  0  0  0  0  0  0  0  0
    3.1969    0.4413    1.3958 H   0  0  0  0  0  0  0  0  0  0  0  0
    2.1872    0.4759    2.8555 H   0  0  0  0  0  0  0  0  0  0  0  0
   -1.0346   -0.6916   -4.0596 H   0  0  0  0  0  0  0  0  0  0  0  0
   -1.3605    2.6552   -1.0072 H   0  0  0  0  0  0  0  0  0  0  0  0
    0.0035    2.2073    0.0063 H   0  0  0  0  0  0  0  0  0  0  0  0
   -1.5658    0.5121    1.2045 H   0  0  0  0  0  0  0  0  0  0  0  0
   -1.0902    2.5706    2.2067 H   0  0  0  0  0  0  0  0  0  0  0  0
   -2.6538    2.1958    2.4727 H   0  0  0  0  0  0  0  0  0  0  0  0
  1  8  1  0
  2  3  2  0
  2  9  1  0
  3 10  1  0
  4  5  1  0
  4 16  1  0
  5 17  1  0
  6  9  1  0
  6 14  2  0
  7  8  1  0
  7 15  1  0
  8 13  1  0
  9 11  2  0
 10 12  2  0
 10 16  1  0
 11 12  1  0
 11 15  1  0
 12 17  1  0
 14 15  1  0
  1 18  1  0
  1 19  1  0
  1 20  1  0
  2 21  1  0
  3 22  1  0
  4 23  1  0
  4 24  1  0
  5 25  1  0
  5 26  1  0
  6 27  1  0
  7 28  1  0
  7 29  1  0
  8 30  1  0
 13 31  1  0
 13 32  1  0
M  END
