
     RDKit          3D

 32 33  0  0  0  0  0  0  0  0999 V2000
    2.2525   -1.5566   -0.9386 C   0  0  0  0  0  0  0  0  0  0  0  0
    0.1898    3.6876    0.6267 C   0  0  0  0  0  0  0  0  0  0  0  0
   -1.0842   -2.3857    0.2819 C   0  0  0  0  0  0  0  0  0  0  0  0
   -2.2900   -2.7165   -0.5914 C   0  0  0  0  0  0  0  0  0  0  0  0
    1.1988   -0.3797    1.0847 C   0  0  0  0  0  0  0  0  0  0  0  0
   -1.7792    1.7807   -0.0386 C   0  0  0  0  0  0  0  0  0  0  0  0
    2.3700   -0.4161    0.0686 C   0  0  0  0  0  0  0  0  0  0  0  0
   -1.1119   -0.9047    0.1805 C   0  0  0  0  0  0  0  0  0  0  0  0
   -0.1568    0.0420    0.5568 C   0  0  0  0  0  0  0  0  0  0  0  0
   -2.7108    0.8093   -0.4105 C   0  0  0  0  0  0  0  0  0  0  0  0
   -0.5098    1.4089    0.4449 C   0  0  0  0  0  0  0  0  0  0  0  0
   -2.3610   -0.5210   -0.2958 C   0  0  0  0  0  0  0  0  0  0  0  0
   -4.4112    1.3348   -1.0447 Br  0  0  0  0  0  0  0  0  0  0  0  0
    2.5569    0.8335   -0.6707 N   0  0  0  0  0  0  0  0  0  0  0  0
    0.4413    2.3083    0.8665 O   0  0  0  0  0  0  0  0  0  0  0  0
   -3.1813   -1.5828   -0.5936 O   0  0  0  0  0  0  0  0  0  0  0  0
    2.1722   -2.5197   -0.4241 H   0  0  0  0  0  0  0  0  0  0  0  0
    1.3797   -1.4394   -1.5896 H   0  0  0  0  0  0  0  0  0  0  0  0
    3.1405   -1.6048   -1.5796 H   0  0  0  0  0  0  0  0  0  0  0  0
    1.0766    4.2468    0.9405 H   0  0  0  0  0  0  0  0  0  0  0  0
   -0.6549    4.0422    1.2260 H   0  0  0  0  0  0  0  0  0  0  0  0
    0.0336    3.8844   -0.4391 H   0  0  0  0  0  0  0  0  0  0  0  0
   -0.1765   -2.8542   -0.1007 H   0  0  0  0  0  0  0  0  0  0  0  0
   -1.2541   -2.6917    1.3194 H   0  0  0  0  0  0  0  0  0  0  0  0
   -2.8238   -3.5993   -0.2249 H   0  0  0  0  0  0  0  0  0  0  0  0
   -1.9883   -2.9094   -1.6291 H   0  0  0  0  0  0  0  0  0  0  0  0
    1.4714    0.2911    1.9111 H   0  0  0  0  0  0  0  0  0  0  0  0
    1.1122   -1.3653    1.5608 H   0  0  0  0  0  0  0  0  0  0  0  0
   -2.0657    2.8233   -0.1212 H   0  0  0  0  0  0  0  0  0  0  0  0
    3.2810   -0.5890    0.6561 H   0  0  0  0  0  0  0  0  0  0  0  0
    3.5231    0.9193   -0.9778 H   0  0  0  0  0  0  0  0  0  0  0  0
    2.3598    1.6238   -0.0545 H   0  0  0  0  0  0  0  0  0  0  0  0
  1  7  1  0
  2 15  1  0
  3  4  1  0
  3  8  1  0
  4 16  1  0
  5  7  1  0
  5  9  1  0
  6 10  2  0
  6 11  1  0
  7 14  1  0
  8  9  1  0
  8 12  2  0
  9 11  2  0
 10 12  1  0
 10 13  1  0
 11 15  1  0
 12 16  1  0
  1 17  1  0
  1 18  1  0
  1 19  1  0
  2 20  1  0
  2 21  1  0
  2 22  1  0
  3 23  1  0
  3 24  1  0
  4 25  1  0
  4 26  1  0
  5 27  1  0
  5 28  1  0
  6 29  1  0
  7 30  1  0
 14 31  1  0
 14 32  1  0
M  END
