
     RDKit          3D

 33 34  0  0  0  0  0  0  0  0999 V2000
   -0.8886    2.9965   -0.3064 C   0  0  0  0  0  0  0  0  0  0  0  0
    4.2246   -1.8029    0.6733 C   0  0  0  0  0  0  0  0  0  0  0  0
   -3.6240   -0.8483    0.5642 C   0  0  0  0  0  0  0  0  0  0  0  0
   -2.6749   -0.4770    1.7134 C   0  0  0  0  0  0  0  0  0  0  0  0
    1.7124   -0.6323    0.1004 C   0  0  0  0  0  0  0  0  0  0  0  0
    1.6702    1.7958   -1.2681 C   0  0  0  0  0  0  0  0  0  0  0  0
   -1.7331   -1.0996   -0.8839 C   0  0  0  0  0  0  0  0  0  0  0  0
    0.4722   -0.0130   -0.1639 C   0  0  0  0  0  0  0  0  0  0  0  0
    2.8851    1.1637   -1.0010 C   0  0  0  0  0  0  0  0  0  0  0  0
    0.4766    1.2192   -0.8319 C   0  0  0  0  0  0  0  0  0  0  0  0
    2.9221   -0.0540   -0.3072 C   0  0  0  0  0  0  0  0  0  0  0  0
   -0.8038   -0.6974    0.2919 C   0  0  0  0  0  0  0  0  0  0  0  0
    4.4740    2.0110   -1.6117 Br  0  0  0  0  0  0  0  0  0  0  0  0
   -2.9780   -1.7442   -0.4106 N   0  0  0  0  0  0  0  0  0  0  0  0
   -0.7077    1.8413   -1.1278 O   0  0  0  0  0  0  0  0  0  0  0  0
    4.1576   -0.6027   -0.0845 O   0  0  0  0  0  0  0  0  0  0  0  0
   -1.4846    0.1590    1.2298 O   0  0  0  0  0  0  0  0  0  0  0  0
   -1.9385    3.2958   -0.3784 H   0  0  0  0  0  0  0  0  0  0  0  0
   -0.6657    2.7918    0.7469 H   0  0  0  0  0  0  0  0  0  0  0  0
   -0.2744    3.8268   -0.6697 H   0  0  0  0  0  0  0  0  0  0  0  0
    3.8140   -1.6603    1.6784 H   0  0  0  0  0  0  0  0  0  0  0  0
    5.2798   -2.0718    0.7807 H   0  0  0  0  0  0  0  0  0  0  0  0
    3.7237   -2.6256    0.1526 H   0  0  0  0  0  0  0  0  0  0  0  0
   -4.5139   -1.3416    0.9682 H   0  0  0  0  0  0  0  0  0  0  0  0
   -3.9522    0.0633    0.0499 H   0  0  0  0  0  0  0  0  0  0  0  0
   -2.3982   -1.3608    2.3008 H   0  0  0  0  0  0  0  0  0  0  0  0
   -3.1716    0.2266    2.3891 H   0  0  0  0  0  0  0  0  0  0  0  0
    1.7063   -1.5797    0.6313 H   0  0  0  0  0  0  0  0  0  0  0  0
    1.6464    2.7306   -1.8205 H   0  0  0  0  0  0  0  0  0  0  0  0
   -2.0146   -0.2285   -1.4854 H   0  0  0  0  0  0  0  0  0  0  0  0
   -1.2085   -1.7939   -1.5502 H   0  0  0  0  0  0  0  0  0  0  0  0
   -0.5312   -1.6118    0.8375 H   0  0  0  0  0  0  0  0  0  0  0  0
   -3.6014   -1.8758   -1.2071 H   0  0  0  0  0  0  0  0  0  0  0  0
  1 15  1  0
  2 16  1  0
  3  4  1  0
  3 14  1  0
  4 17  1  0
  5  8  2  0
  5 11  1  0
  6  9  1  0
  6 10  2  0
  7 12  1  0
  7 14  1  0
  8 10  1  0
  8 12  1  0
  9 11  2  0
  9 13  1  0
 10 15  1  0
 11 16  1  0
 12 17  1  0
  1 18  1  0
  1 19  1  0
  1 20  1  0
  2 21  1  0
  2 22  1  0
  2 23  1  0
  3 24  1  0
  3 25  1  0
  4 26  1  0
  4 27  1  0
  5 28  1  0
  6 29  1  0
  7 30  1  0
  7 31  1  0
 12 32  1  0
 14 33  1  0
M  END
