
     RDKit          3D

 37 37  0  0  0  0  0  0  0  0999 V2000
   -4.9119    0.3336    0.3194 C   0  0  0  0  0  0  0  0  0  0  0  0
   -0.8146   -3.6092    0.0285 C   0  0  0  0  0  0  0  0  0  0  0  0
    1.2142    3.4446   -0.8276 C   0  0  0  0  0  0  0  0  0  0  0  0
   -3.4078    0.2191    0.5104 C   0  0  0  0  0  0  0  0  0  0  0  0
   -2.6851    0.0684   -0.8293 C   0  0  0  0  0  0  0  0  0  0  0  0
    3.0986   -0.2453   -0.0884 C   0  0  0  0  0  0  0  0  0  0  0  0
    3.4978    0.1040    1.3504 C   0  0  0  0  0  0  0  0  0  0  0  0
   -0.4045    1.1292   -0.7305 C   0  0  0  0  0  0  0  0  0  0  0  0
    0.8196   -1.3135   -0.2015 C   0  0  0  0  0  0  0  0  0  0  0  0
   -1.1859   -0.0389   -0.6489 C   0  0  0  0  0  0  0  0  0  0  0  0
    1.6024   -0.1475   -0.2983 C   0  0  0  0  0  0  0  0  0  0  0  0
   -0.5668   -1.2689   -0.3721 C   0  0  0  0  0  0  0  0  0  0  0  0
    0.9809    1.0852   -0.5560 C   0  0  0  0  0  0  0  0  0  0  0  0
    4.9435   -0.0045    1.5589 N   0  0  0  0  0  0  0  0  0  0  0  0
   -1.3996   -2.3535   -0.2891 O   0  0  0  0  0  0  0  0  0  0  0  0
    1.8123    2.1724   -0.6155 O   0  0  0  0  0  0  0  0  0  0  0  0
   -5.1645    1.2061   -0.2916 H   0  0  0  0  0  0  0  0  0  0  0  0
   -5.4098    0.4418    1.2880 H   0  0  0  0  0  0  0  0  0  0  0  0
   -5.3137   -0.5585   -0.1714 H   0  0  0  0  0  0  0  0  0  0  0  0
   -1.6183   -4.3507    0.0709 H   0  0  0  0  0  0  0  0  0  0  0  0
   -0.3337   -3.5843    1.0119 H   0  0  0  0  0  0  0  0  0  0  0  0
   -0.1121   -3.9252   -0.7497 H   0  0  0  0  0  0  0  0  0  0  0  0
    2.0126    4.1930   -0.8253 H   0  0  0  0  0  0  0  0  0  0  0  0
    0.7195    3.4900   -1.8033 H   0  0  0  0  0  0  0  0  0  0  0  0
    0.5210    3.6960   -0.0181 H   0  0  0  0  0  0  0  0  0  0  0  0
   -3.1938   -0.6398    1.1577 H   0  0  0  0  0  0  0  0  0  0  0  0
   -3.0436    1.1100    1.0364 H   0  0  0  0  0  0  0  0  0  0  0  0
   -2.9135    0.9275   -1.4735 H   0  0  0  0  0  0  0  0  0  0  0  0
   -3.0594   -0.8082   -1.3725 H   0  0  0  0  0  0  0  0  0  0  0  0
    3.4340   -1.2625   -0.3312 H   0  0  0  0  0  0  0  0  0  0  0  0
    3.6155    0.4084   -0.8026 H   0  0  0  0  0  0  0  0  0  0  0  0
    2.9929   -0.5664    2.0554 H   0  0  0  0  0  0  0  0  0  0  0  0
    3.1842    1.1228    1.6037 H   0  0  0  0  0  0  0  0  0  0  0  0
   -0.9124    2.0673   -0.9314 H   0  0  0  0  0  0  0  0  0  0  0  0
    1.3242   -2.2504    0.0122 H   0  0  0  0  0  0  0  0  0  0  0  0
    5.2585   -0.9361    1.2927 H   0  0  0  0  0  0  0  0  0  0  0  0
    5.4193    0.6438    0.9316 H   0  0  0  0  0  0  0  0  0  0  0  0
  1  4  1  0
  2 15  1  0
  3 16  1  0
  4  5  1  0
  5 10  1  0
  6  7  1  0
  6 11  1  0
  7 14  1  0
  8 10  2  0
  8 13  1  0
  9 11  1  0
  9 12  2  0
 10 12  1  0
 11 13  2  0
 12 15  1  0
 13 16  1  0
  1 17  1  0
  1 18  1  0
  1 19  1  0
  2 20  1  0
  2 21  1  0
  2 22  1  0
  3 23  1  0
  3 24  1  0
  3 25  1  0
  4 26  1  0
  4 27  1  0
  5 28  1  0
  5 29  1  0
  6 30  1  0
  6 31  1  0
  7 32  1  0
  7 33  1  0
  8 34  1  0
  9 35  1  0
 14 36  1  0
 14 37  1  0
M  END
