
     RDKit          3D

 35 35  0  0  0  0  0  0  0  0999 V2000
    2.8431    2.0119   -0.5041 C   0  0  0  0  0  0  0  0  0  0  0  0
   -1.6832   -2.3748   -2.6161 C   0  0  0  0  0  0  0  0  0  0  0  0
   -0.9187    1.9923    3.0576 C   0  0  0  0  0  0  0  0  0  0  0  0
    2.4147   -0.4771   -0.0661 C   0  0  0  0  0  0  0  0  0  0  0  0
    0.0742   -1.0607   -0.8280 C   0  0  0  0  0  0  0  0  0  0  0  0
    0.3382    0.3197    1.1495 C   0  0  0  0  0  0  0  0  0  0  0  0
    3.0511    0.5802   -0.9987 C   0  0  0  0  0  0  0  0  0  0  0  0
    0.9098   -0.4057    0.0919 C   0  0  0  0  0  0  0  0  0  0  0  0
   -1.3145   -0.9977   -0.7033 C   0  0  0  0  0  0  0  0  0  0  0  0
   -1.0489    0.4003    1.2887 C   0  0  0  0  0  0  0  0  0  0  0  0
   -1.8658   -0.2807    0.3700 C   0  0  0  0  0  0  0  0  0  0  0  0
   -3.7113   -1.0509    1.4861 C   0  0  0  0  0  0  0  0  0  0  0  0
   -5.0444   -0.8208    1.6231 F   0  0  0  0  0  0  0  0  0  0  0  0
   -3.5863   -2.3428    1.0862 F   0  0  0  0  0  0  0  0  0  0  0  0
    2.5850    0.4550   -2.3848 N   0  0  0  0  0  0  0  0  0  0  0  0
   -2.2089   -1.5876   -1.5566 O   0  0  0  0  0  0  0  0  0  0  0  0
   -1.6974    1.0917    2.2793 O   0  0  0  0  0  0  0  0  0  0  0  0
   -3.2366   -0.1895    0.4624 O   0  0  0  0  0  0  0  0  0  0  0  0
    1.7919    2.3156   -0.5521 H   0  0  0  0  0  0  0  0  0  0  0  0
    3.1816    2.1169    0.5322 H   0  0  0  0  0  0  0  0  0  0  0  0
    3.4184    2.7193   -1.1121 H   0  0  0  0  0  0  0  0  0  0  0  0
   -1.0945   -1.7627   -3.3072 H   0  0  0  0  0  0  0  0  0  0  0  0
   -2.5275   -2.7888   -3.1758 H   0  0  0  0  0  0  0  0  0  0  0  0
   -1.0956   -3.2149   -2.2312 H   0  0  0  0  0  0  0  0  0  0  0  0
   -0.3940    2.7164    2.4252 H   0  0  0  0  0  0  0  0  0  0  0  0
   -0.2199    1.4482    3.7010 H   0  0  0  0  0  0  0  0  0  0  0  0
   -1.6018    2.5497    3.7058 H   0  0  0  0  0  0  0  0  0  0  0  0
    2.8783   -0.4021    0.9268 H   0  0  0  0  0  0  0  0  0  0  0  0
    2.6792   -1.4813   -0.4256 H   0  0  0  0  0  0  0  0  0  0  0  0
    0.5410   -1.6103   -1.6411 H   0  0  0  0  0  0  0  0  0  0  0  0
    1.0010    0.8142    1.8527 H   0  0  0  0  0  0  0  0  0  0  0  0
    4.1310    0.3872   -1.0062 H   0  0  0  0  0  0  0  0  0  0  0  0
   -3.2338   -0.9135    2.4615 H   0  0  0  0  0  0  0  0  0  0  0  0
    3.0524    1.1523   -2.9643 H   0  0  0  0  0  0  0  0  0  0  0  0
    1.5920    0.6909   -2.4266 H   0  0  0  0  0  0  0  0  0  0  0  0
  1  7  1  0
  2 16  1  0
  3 17  1  0
  4  7  1  0
  4  8  1  0
  5  8  2  0
  5  9  1  0
  6  8  1  0
  6 10  2  0
  7 15  1  0
  9 11  2  0
  9 16  1  0
 10 11  1  0
 10 17  1  0
 11 18  1  0
 12 13  1  0
 12 14  1  0
 12 18  1  0
  1 19  1  0
  1 20  1  0
  1 21  1  0
  2 22  1  0
  2 23  1  0
  2 24  1  0
  3 25  1  0
  3 26  1  0
  3 27  1  0
  4 28  1  0
  4 29  1  0
  5 30  1  0
  6 31  1  0
  7 32  1  0
 12 33  1  0
 15 34  1  0
 15 35  1  0
M  END
