
     RDKit          3D

 32 33  0  0  0  0  0  0  0  0999 V2000
   -3.7104    1.1496   -0.4359 C   0  0  0  0  0  0  0  0  0  0  0  0
   -3.6095   -0.3212    1.4651 C   0  0  0  0  0  0  0  0  0  0  0  0
    4.4825    0.2659   -0.0321 C   0  0  0  0  0  0  0  0  0  0  0  0
    3.6053    1.0992    0.6592 C   0  0  0  0  0  0  0  0  0  0  0  0
    4.0040   -0.7826   -0.8180 C   0  0  0  0  0  0  0  0  0  0  0  0
   -0.8943   -0.0433    0.0140 C   0  0  0  0  0  0  0  0  0  0  0  0
   -2.1774   -0.7499   -0.4647 C   0  0  0  0  0  0  0  0  0  0  0  0
    0.5492   -1.7154   -1.3564 C   0  0  0  0  0  0  0  0  0  0  0  0
    0.3877   -0.6337   -0.5108 C   0  0  0  0  0  0  0  0  0  0  0  0
    2.2128    0.9146    0.5902 C   0  0  0  0  0  0  0  0  0  0  0  0
    2.6178   -0.9629   -0.8839 C   0  0  0  0  0  0  0  0  0  0  0  0
    1.7100   -0.1470   -0.2045 C   0  0  0  0  0  0  0  0  0  0  0  0
    1.3675    1.7889    1.3115 N   0  0  0  0  0  0  0  0  0  0  0  0
    1.8867   -1.9017   -1.5715 N   0  0  0  0  0  0  0  0  0  0  0  0
   -3.4680   -0.2179    0.0154 N   0  0  0  0  0  0  0  0  0  0  0  0
   -4.7344    1.4533   -0.1907 H   0  0  0  0  0  0  0  0  0  0  0  0
   -3.6162    1.2218   -1.5250 H   0  0  0  0  0  0  0  0  0  0  0  0
   -3.0270    1.8735    0.0206 H   0  0  0  0  0  0  0  0  0  0  0  0
   -4.6307   -0.0602    1.7654 H   0  0  0  0  0  0  0  0  0  0  0  0
   -3.4398   -1.3506    1.7997 H   0  0  0  0  0  0  0  0  0  0  0  0
   -2.9217    0.3376    2.0058 H   0  0  0  0  0  0  0  0  0  0  0  0
    5.5543    0.4342    0.0413 H   0  0  0  0  0  0  0  0  0  0  0  0
    4.0155    1.9058    1.2615 H   0  0  0  0  0  0  0  0  0  0  0  0
    4.6871   -1.4315   -1.3562 H   0  0  0  0  0  0  0  0  0  0  0  0
   -0.9243    1.0100   -0.2886 H   0  0  0  0  0  0  0  0  0  0  0  0
   -0.8502   -0.0713    1.1090 H   0  0  0  0  0  0  0  0  0  0  0  0
   -2.2010   -0.7469   -1.5629 H   0  0  0  0  0  0  0  0  0  0  0  0
   -2.1281   -1.8115   -0.1869 H   0  0  0  0  0  0  0  0  0  0  0  0
   -0.1724   -2.3710   -1.8253 H   0  0  0  0  0  0  0  0  0  0  0  0
    1.5347    2.7456    1.0059 H   0  0  0  0  0  0  0  0  0  0  0  0
    1.6034    1.7436    2.3010 H   0  0  0  0  0  0  0  0  0  0  0  0
    2.2867   -2.6250   -2.1523 H   0  0  0  0  0  0  0  0  0  0  0  0
  1 15  1  0
  2 15  1  0
  3  4  2  0
  3  5  1  0
  4 10  1  0
  5 11  2  0
  6  7  1  0
  6  9  1  0
  7 15  1  0
  8  9  2  0
  8 14  1  0
  9 12  1  0
 10 12  2  0
 10 13  1  0
 11 12  1  0
 11 14  1  0
  1 16  1  0
  1 17  1  0
  1 18  1  0
  2 19  1  0
  2 20  1  0
  2 21  1  0
  3 22  1  0
  4 23  1  0
  5 24  1  0
  6 25  1  0
  6 26  1  0
  7 27  1  0
  7 28  1  0
  8 29  1  0
 13 30  1  0
 13 31  1  0
 14 32  1  0
M  END
