
     RDKit          3D

 32 33  0  0  0  0  0  0  0  0999 V2000
   -2.9189   -2.7642   -0.1819 C   0  0  0  0  0  0  0  0  0  0  0  0
    1.6269    3.0450    0.3269 C   0  0  0  0  0  0  0  0  0  0  0  0
   -2.4390    1.6851   -1.2653 C   0  0  0  0  0  0  0  0  0  0  0  0
   -1.2234    2.6105   -0.9548 C   0  0  0  0  0  0  0  0  0  0  0  0
    1.6813   -1.0163    1.5076 C   0  0  0  0  0  0  0  0  0  0  0  0
    2.8567   -1.3690    0.5859 C   0  0  0  0  0  0  0  0  0  0  0  0
   -0.6180   -1.2265    0.4769 C   0  0  0  0  0  0  0  0  0  0  0  0
    0.5023   -0.4034    0.7762 C   0  0  0  0  0  0  0  0  0  0  0  0
   -1.6682    0.6030   -0.5715 C   0  0  0  0  0  0  0  0  0  0  0  0
   -0.5920    1.4159   -0.2930 C   0  0  0  0  0  0  0  0  0  0  0  0
   -1.7236   -0.7216   -0.2072 C   0  0  0  0  0  0  0  0  0  0  0  0
    0.5163    0.9492    0.3790 C   0  0  0  0  0  0  0  0  0  0  0  0
    2.5417   -2.4677   -0.3322 N   0  0  0  0  0  0  0  0  0  0  0  0
   -2.8521   -1.3947   -0.5593 O   0  0  0  0  0  0  0  0  0  0  0  0
    1.6294    1.6719    0.6933 O   0  0  0  0  0  0  0  0  0  0  0  0
   -3.8782   -3.1602   -0.5289 H   0  0  0  0  0  0  0  0  0  0  0  0
   -2.1251   -3.3453   -0.6630 H   0  0  0  0  0  0  0  0  0  0  0  0
   -2.8866   -2.8760    0.9070 H   0  0  0  0  0  0  0  0  0  0  0  0
    2.5731    3.4804    0.6630 H   0  0  0  0  0  0  0  0  0  0  0  0
    1.5774    3.1638   -0.7600 H   0  0  0  0  0  0  0  0  0  0  0  0
    0.8184    3.5876    0.8269 H   0  0  0  0  0  0  0  0  0  0  0  0
   -2.6288    1.5378   -2.3341 H   0  0  0  0  0  0  0  0  0  0  0  0
   -3.3741    1.9981   -0.7881 H   0  0  0  0  0  0  0  0  0  0  0  0
   -0.7192    2.9952   -1.8482 H   0  0  0  0  0  0  0  0  0  0  0  0
   -1.4656    3.4571   -0.3029 H   0  0  0  0  0  0  0  0  0  0  0  0
    2.0228   -0.3159    2.2805 H   0  0  0  0  0  0  0  0  0  0  0  0
    1.3573   -1.9107    2.0560 H   0  0  0  0  0  0  0  0  0  0  0  0
    3.7081   -1.6762    1.2031 H   0  0  0  0  0  0  0  0  0  0  0  0
    3.1740   -0.4963    0.0047 H   0  0  0  0  0  0  0  0  0  0  0  0
   -0.5843   -2.2660    0.7915 H   0  0  0  0  0  0  0  0  0  0  0  0
    1.7735   -2.1732   -0.9373 H   0  0  0  0  0  0  0  0  0  0  0  0
    3.3378   -2.6174   -0.9508 H   0  0  0  0  0  0  0  0  0  0  0  0
  1 14  1  0
  2 15  1  0
  3  4  1  0
  3  9  1  0
  4 10  1  0
  5  6  1  0
  5  8  1  0
  6 13  1  0
  7  8  1  0
  7 11  2  0
  8 12  2  0
  9 10  2  0
  9 11  1  0
 10 12  1  0
 11 14  1  0
 12 15  1  0
  1 16  1  0
  1 17  1  0
  1 18  1  0
  2 19  1  0
  2 20  1  0
  2 21  1  0
  3 22  1  0
  3 23  1  0
  4 24  1  0
  4 25  1  0
  5 26  1  0
  5 27  1  0
  6 28  1  0
  6 29  1  0
  7 30  1  0
 13 31  1  0
 13 32  1  0
M  END
