
     RDKit          3D

 32 33  0  0  0  0  0  0  0  0999 V2000
    1.5827   -1.2455   -1.1168 C   0  0  0  0  0  0  0  0  0  0  0  0
    2.8156    2.2386   -0.1326 C   0  0  0  0  0  0  0  0  0  0  0  0
    3.6152    0.7218   -1.7840 C   0  0  0  0  0  0  0  0  0  0  0  0
   -1.0062   -1.4596    1.4082 C   0  0  0  0  0  0  0  0  0  0  0  0
   -2.3248   -1.9255    1.3920 C   0  0  0  0  0  0  0  0  0  0  0  0
    0.7869    0.2242    0.7737 C   0  0  0  0  0  0  0  0  0  0  0  0
   -1.6325    0.4711    0.0622 C   0  0  0  0  0  0  0  0  0  0  0  0
   -5.0380   -0.3633   -0.2054 C   0  0  0  0  0  0  0  0  0  0  0  0
    1.5124    0.2093   -0.6059 C   0  0  0  0  0  0  0  0  0  0  0  0
   -0.6477   -0.2649    0.7420 C   0  0  0  0  0  0  0  0  0  0  0  0
   -3.2599   -1.1792    0.7098 C   0  0  0  0  0  0  0  0  0  0  0  0
   -2.9235   -0.0135    0.0640 C   0  0  0  0  0  0  0  0  0  0  0  0
    2.8732    0.8227   -0.5204 N   0  0  0  0  0  0  0  0  0  0  0  0
   -4.5811   -1.4772    0.5892 O   0  0  0  0  0  0  0  0  0  0  0  0
   -3.9911    0.5699   -0.5441 O   0  0  0  0  0  0  0  0  0  0  0  0
    2.2392   -1.8556   -0.4864 H   0  0  0  0  0  0  0  0  0  0  0  0
    1.9463   -1.2973   -2.1479 H   0  0  0  0  0  0  0  0  0  0  0  0
    0.5958   -1.7182   -1.1299 H   0  0  0  0  0  0  0  0  0  0  0  0
    3.8158    2.6881   -0.1497 H   0  0  0  0  0  0  0  0  0  0  0  0
    2.4681    2.3611    0.8969 H   0  0  0  0  0  0  0  0  0  0  0  0
    2.1696    2.8215   -0.7987 H   0  0  0  0  0  0  0  0  0  0  0  0
    3.0543    1.1446   -2.6251 H   0  0  0  0  0  0  0  0  0  0  0  0
    3.8756   -0.3161   -2.0124 H   0  0  0  0  0  0  0  0  0  0  0  0
    4.5752    1.2476   -1.7159 H   0  0  0  0  0  0  0  0  0  0  0  0
   -0.2509   -2.0343    1.9412 H   0  0  0  0  0  0  0  0  0  0  0  0
   -2.6033   -2.8421    1.8991 H   0  0  0  0  0  0  0  0  0  0  0  0
    1.3666   -0.3657    1.4962 H   0  0  0  0  0  0  0  0  0  0  0  0
    0.7408    1.2387    1.1847 H   0  0  0  0  0  0  0  0  0  0  0  0
   -1.3980    1.3978   -0.4503 H   0  0  0  0  0  0  0  0  0  0  0  0
   -5.4753   -0.7506   -1.1329 H   0  0  0  0  0  0  0  0  0  0  0  0
   -5.8156    0.1702    0.3534 H   0  0  0  0  0  0  0  0  0  0  0  0
    0.9145    0.7813   -1.3286 H   0  0  0  0  0  0  0  0  0  0  0  0
  1  9  1  0
  2 13  1  0
  3 13  1  0
  4  5  2  0
  4 10  1  0
  5 11  1  0
  6  9  1  0
  6 10  1  0
  7 10  2  0
  7 12  1  0
  8 14  1  0
  8 15  1  0
  9 13  1  0
 11 12  2  0
 11 14  1  0
 12 15  1  0
  1 16  1  0
  1 17  1  0
  1 18  1  0
  2 19  1  0
  2 20  1  0
  2 21  1  0
  3 22  1  0
  3 23  1  0
  3 24  1  0
  4 25  1  0
  5 26  1  0
  6 27  1  0
  6 28  1  0
  7 29  1  0
  8 30  1  0
  8 31  1  0
  9 32  1  0
M  END
