
     RDKit          3D

 33 34  0  0  0  0  0  0  0  0999 V2000
   -2.8860    3.0581    0.6522 C   0  0  0  0  0  0  0  0  0  0  0  0
    2.9645    1.0658    0.5664 C   0  0  0  0  0  0  0  0  0  0  0  0
    3.6261    0.0077   -0.3069 C   0  0  0  0  0  0  0  0  0  0  0  0
   -2.6912   -2.9838    0.0227 C   0  0  0  0  0  0  0  0  0  0  0  0
    1.5245    1.3133    0.1219 C   0  0  0  0  0  0  0  0  0  0  0  0
   -1.9031   -1.8953    0.4944 C   0  0  0  0  0  0  0  0  0  0  0  0
    2.7684   -1.2501   -0.3888 C   0  0  0  0  0  0  0  0  0  0  0  0
   -2.9321   -2.8973   -1.3292 C   0  0  0  0  0  0  0  0  0  0  0  0
    0.7166   -0.0006    0.0484 C   0  0  0  0  0  0  0  0  0  0  0  0
   -1.5659   -1.0096   -0.5139 C   0  0  0  0  0  0  0  0  0  0  0  0
   -0.7393    0.2612   -0.4343 C   0  0  0  0  0  0  0  0  0  0  0  0
   -1.4522    1.2083    0.5227 C   0  0  0  0  0  0  0  0  0  0  0  0
    1.4198   -0.9384   -0.8606 N   0  0  0  0  0  0  0  0  0  0  0  0
   -1.4017    1.1398    1.7458 O   0  0  0  0  0  0  0  0  0  0  0  0
   -2.1633    2.1434   -0.1722 O   0  0  0  0  0  0  0  0  0  0  0  0
   -2.2134   -1.5110   -2.0224 S   0  0  0  0  0  0  0  0  0  0  0  0
   -3.4225    3.7518   -0.0009 H   0  0  0  0  0  0  0  0  0  0  0  0
   -2.1981    3.6340    1.2791 H   0  0  0  0  0  0  0  0  0  0  0  0
   -3.6179    2.5246    1.2667 H   0  0  0  0  0  0  0  0  0  0  0  0
    3.5361    1.9994    0.5223 H   0  0  0  0  0  0  0  0  0  0  0  0
    2.9709    0.7338    1.6120 H   0  0  0  0  0  0  0  0  0  0  0  0
    4.6144   -0.2410    0.0957 H   0  0  0  0  0  0  0  0  0  0  0  0
    3.7837    0.4127   -1.3146 H   0  0  0  0  0  0  0  0  0  0  0  0
   -3.0646   -3.7882    0.6447 H   0  0  0  0  0  0  0  0  0  0  0  0
    1.5282    1.8052   -0.8598 H   0  0  0  0  0  0  0  0  0  0  0  0
    1.0630    2.0149    0.8256 H   0  0  0  0  0  0  0  0  0  0  0  0
   -1.6023   -1.7668    1.5287 H   0  0  0  0  0  0  0  0  0  0  0  0
    2.7232   -1.7482    0.5872 H   0  0  0  0  0  0  0  0  0  0  0  0
    3.2331   -1.9553   -1.0866 H   0  0  0  0  0  0  0  0  0  0  0  0
   -3.4987   -3.5811   -1.9463 H   0  0  0  0  0  0  0  0  0  0  0  0
    0.6844   -0.4485    1.0518 H   0  0  0  0  0  0  0  0  0  0  0  0
   -0.6886    0.7470   -1.4189 H   0  0  0  0  0  0  0  0  0  0  0  0
    0.8841   -1.8060   -0.9330 H   0  0  0  0  0  0  0  0  0  0  0  0
  1 15  1  0
  2  3  1  0
  2  5  1  0
  3  7  1  0
  4  6  1  0
  4  8  2  0
  5  9  1  0
  6 10  2  0
  7 13  1  0
  8 16  1  0
  9 11  1  0
  9 13  1  0
 10 11  1  0
 10 16  1  0
 11 12  1  0
 12 14  2  0
 12 15  1  0
  1 17  1  0
  1 18  1  0
  1 19  1  0
  2 20  1  0
  2 21  1  0
  3 22  1  0
  3 23  1  0
  4 24  1  0
  5 25  1  0
  5 26  1  0
  6 27  1  0
  7 28  1  0
  7 29  1  0
  8 30  1  0
  9 31  1  0
 11 32  1  0
 13 33  1  0
M  END
