
     RDKit          3D

 33 34  0  0  0  0  0  0  0  0999 V2000
   -2.7649   -2.5209    0.3863 C   0  0  0  0  0  0  0  0  0  0  0  0
   -3.6323    0.2401   -0.4456 C   0  0  0  0  0  0  0  0  0  0  0  0
    3.8929   -1.5879   -0.3435 C   0  0  0  0  0  0  0  0  0  0  0  0
   -1.0663   -0.7601    1.0329 C   0  0  0  0  0  0  0  0  0  0  0  0
    1.3507   -0.4929    0.2988 C   0  0  0  0  0  0  0  0  0  0  0  0
   -0.0577    1.4892    0.4670 C   0  0  0  0  0  0  0  0  0  0  0  0
    2.4047    3.7832   -0.5399 C   0  0  0  0  0  0  0  0  0  0  0  0
   -1.8268   -1.4281   -0.1386 C   0  0  0  0  0  0  0  0  0  0  0  0
    0.0985    0.1020    0.5945 C   0  0  0  0  0  0  0  0  0  0  0  0
    2.4433    0.2806   -0.1141 C   0  0  0  0  0  0  0  0  0  0  0  0
    1.0308    2.2299    0.0603 C   0  0  0  0  0  0  0  0  0  0  0  0
    2.2452    1.6470   -0.2214 C   0  0  0  0  0  0  0  0  0  0  0  0
   -2.5181   -0.4861   -1.0361 N   0  0  0  0  0  0  0  0  0  0  0  0
    3.6896   -0.1842   -0.4207 O   0  0  0  0  0  0  0  0  0  0  0  0
    1.0448    3.5800   -0.1087 O   0  0  0  0  0  0  0  0  0  0  0  0
    3.1750    2.5695   -0.6040 O   0  0  0  0  0  0  0  0  0  0  0  0
   -2.1907   -3.3062    0.8905 H   0  0  0  0  0  0  0  0  0  0  0  0
   -3.4888   -2.1274    1.1075 H   0  0  0  0  0  0  0  0  0  0  0  0
   -3.3163   -2.9945   -0.4333 H   0  0  0  0  0  0  0  0  0  0  0  0
   -4.0273    0.9452   -1.1844 H   0  0  0  0  0  0  0  0  0  0  0  0
   -3.3298    0.8295    0.4238 H   0  0  0  0  0  0  0  0  0  0  0  0
   -4.4531   -0.4251   -0.1623 H   0  0  0  0  0  0  0  0  0  0  0  0
    3.2417   -2.1211   -1.0441 H   0  0  0  0  0  0  0  0  0  0  0  0
    3.7540   -1.9510    0.6802 H   0  0  0  0  0  0  0  0  0  0  0  0
    4.9287   -1.7925   -0.6309 H   0  0  0  0  0  0  0  0  0  0  0  0
   -0.6702   -1.5395    1.6986 H   0  0  0  0  0  0  0  0  0  0  0  0
   -1.7463   -0.1742    1.6634 H   0  0  0  0  0  0  0  0  0  0  0  0
    1.4402   -1.5701    0.4012 H   0  0  0  0  0  0  0  0  0  0  0  0
   -1.0056    1.9748    0.6705 H   0  0  0  0  0  0  0  0  0  0  0  0
    2.3917    4.2441   -1.5344 H   0  0  0  0  0  0  0  0  0  0  0  0
    2.8935    4.4724    0.1582 H   0  0  0  0  0  0  0  0  0  0  0  0
   -1.0801   -1.9357   -0.7639 H   0  0  0  0  0  0  0  0  0  0  0  0
   -2.8510   -0.9900   -1.8580 H   0  0  0  0  0  0  0  0  0  0  0  0
  1  8  1  0
  2 13  1  0
  3 14  1  0
  4  8  1  0
  4  9  1  0
  5  9  2  0
  5 10  1  0
  6  9  1  0
  6 11  2  0
  7 15  1  0
  7 16  1  0
  8 13  1  0
 10 12  2  0
 10 14  1  0
 11 12  1  0
 11 15  1  0
 12 16  1  0
  1 17  1  0
  1 18  1  0
  1 19  1  0
  2 20  1  0
  2 21  1  0
  2 22  1  0
  3 23  1  0
  3 24  1  0
  3 25  1  0
  4 26  1  0
  4 27  1  0
  5 28  1  0
  6 29  1  0
  7 30  1  0
  7 31  1  0
  8 32  1  0
 13 33  1  0
M  END
