
     RDKit          3D

 33 34  0  0  0  0  0  0  0  0999 V2000
   -4.4531    0.3508   -0.5357 C   0  0  0  0  0  0  0  0  0  0  0  0
   -4.5548    1.6094    0.3183 C   0  0  0  0  0  0  0  0  0  0  0  0
   -0.3266   -0.5169    0.7576 C   0  0  0  0  0  0  0  0  0  0  0  0
    0.5516   -1.0675    0.1487 C   0  0  0  0  0  0  0  0  0  0  0  0
    4.4550    0.6860   -0.5614 C   0  0  0  0  0  0  0  0  0  0  0  0
    5.1633   -0.6237   -0.8812 C   0  0  0  0  0  0  0  0  0  0  0  0
   -3.2328   -0.3915   -0.0098 C   0  0  0  0  0  0  0  0  0  0  0  0
   -3.4019    1.5114    1.3055 C   0  0  0  0  0  0  0  0  0  0  0  0
   -1.3950    0.1665    1.5018 C   0  0  0  0  0  0  0  0  0  0  0  0
    1.6228   -1.7264   -0.6049 C   0  0  0  0  0  0  0  0  0  0  0  0
    3.0002    0.3839   -0.8621 C   0  0  0  0  0  0  0  0  0  0  0  0
    4.0946   -1.6637   -0.6433 C   0  0  0  0  0  0  0  0  0  0  0  0
   -2.4313    0.6733    0.6007 N   0  0  0  0  0  0  0  0  0  0  0  0
    2.8772   -1.0073   -0.4993 N   0  0  0  0  0  0  0  0  0  0  0  0
    4.2799   -2.8690   -0.6381 O   0  0  0  0  0  0  0  0  0  0  0  0
   -4.3190    0.6256   -1.5878 H   0  0  0  0  0  0  0  0  0  0  0  0
   -5.3565   -0.2624   -0.4616 H   0  0  0  0  0  0  0  0  0  0  0  0
   -4.4507    2.4971   -0.3164 H   0  0  0  0  0  0  0  0  0  0  0  0
   -5.5194    1.6753    0.8315 H   0  0  0  0  0  0  0  0  0  0  0  0
    4.8448    1.5338   -1.1346 H   0  0  0  0  0  0  0  0  0  0  0  0
    4.5756    0.9150    0.5058 H   0  0  0  0  0  0  0  0  0  0  0  0
    5.4683   -0.6653   -1.9308 H   0  0  0  0  0  0  0  0  0  0  0  0
    6.0238   -0.7899   -0.2291 H   0  0  0  0  0  0  0  0  0  0  0  0
   -2.7040   -0.9045   -0.8195 H   0  0  0  0  0  0  0  0  0  0  0  0
   -3.5470   -1.1388    0.7312 H   0  0  0  0  0  0  0  0  0  0  0  0
   -2.9952    2.4992    1.5486 H   0  0  0  0  0  0  0  0  0  0  0  0
   -3.7480    1.0383    2.2337 H   0  0  0  0  0  0  0  0  0  0  0  0
   -1.8161   -0.5059    2.2601 H   0  0  0  0  0  0  0  0  0  0  0  0
   -0.9415    1.0083    2.0407 H   0  0  0  0  0  0  0  0  0  0  0  0
    1.7639   -2.7515   -0.2430 H   0  0  0  0  0  0  0  0  0  0  0  0
    1.3671   -1.7913   -1.6683 H   0  0  0  0  0  0  0  0  0  0  0  0
    2.7823    0.4901   -1.9303 H   0  0  0  0  0  0  0  0  0  0  0  0
    2.3227    1.0115   -0.2773 H   0  0  0  0  0  0  0  0  0  0  0  0
  1  2  1  0
  1  7  1  0
  2  8  1  0
  3  4  3  0
  3  9  1  0
  4 10  1  0
  5  6  1  0
  5 11  1  0
  6 12  1  0
  7 13  1  0
  8 13  1  0
  9 13  1  0
 10 14  1  0
 11 14  1  0
 12 14  1  0
 12 15  2  0
  1 16  1  0
  1 17  1  0
  2 18  1  0
  2 19  1  0
  5 20  1  0
  5 21  1  0
  6 22  1  0
  6 23  1  0
  7 24  1  0
  7 25  1  0
  8 26  1  0
  8 27  1  0
  9 28  1  0
  9 29  1  0
 10 30  1  0
 10 31  1  0
 11 32  1  0
 11 33  1  0
M  END
