
     RDKit          3D

 35 35  0  0  0  0  0  0  0  0999 V2000
   -3.0684   -2.3895    0.7539 C   0  0  0  0  0  0  0  0  0  0  0  0
    0.7693    3.6309    0.0516 C   0  0  0  0  0  0  0  0  0  0  0  0
   -2.5236    2.3846    0.7245 C   0  0  0  0  0  0  0  0  0  0  0  0
   -2.9130   -1.3194    1.8208 C   0  0  0  0  0  0  0  0  0  0  0  0
    1.9664   -1.4632   -1.7972 C   0  0  0  0  0  0  0  0  0  0  0  0
    3.4571   -1.3007   -1.4682 C   0  0  0  0  0  0  0  0  0  0  0  0
    0.8458    0.7340   -1.2515 C   0  0  0  0  0  0  0  0  0  0  0  0
    0.4260   -1.1542    0.1868 C   0  0  0  0  0  0  0  0  0  0  0  0
    1.0554   -0.6139   -0.9435 C   0  0  0  0  0  0  0  0  0  0  0  0
    0.0224    1.5226   -0.4437 C   0  0  0  0  0  0  0  0  0  0  0  0
   -0.4397   -0.3812    0.9779 C   0  0  0  0  0  0  0  0  0  0  0  0
   -0.6653    0.9655    0.6450 C   0  0  0  0  0  0  0  0  0  0  0  0
    3.8228   -1.8934   -0.1835 N   0  0  0  0  0  0  0  0  0  0  0  0
   -0.0885    2.8481   -0.7831 O   0  0  0  0  0  0  0  0  0  0  0  0
   -1.5011    1.7024    1.4494 O   0  0  0  0  0  0  0  0  0  0  0  0
   -1.1892   -1.1819    2.3981 S   0  0  0  0  0  0  0  0  0  0  0  0
   -2.5228   -2.1361   -0.1604 H   0  0  0  0  0  0  0  0  0  0  0  0
   -4.1249   -2.4931    0.4851 H   0  0  0  0  0  0  0  0  0  0  0  0
   -2.7210   -3.3654    1.1091 H   0  0  0  0  0  0  0  0  0  0  0  0
    1.8120    3.3049   -0.0344 H   0  0  0  0  0  0  0  0  0  0  0  0
    0.7106    4.6683   -0.2910 H   0  0  0  0  0  0  0  0  0  0  0  0
    0.4463    3.6028    1.0974 H   0  0  0  0  0  0  0  0  0  0  0  0
   -3.4027    2.4474    1.3734 H   0  0  0  0  0  0  0  0  0  0  0  0
   -2.2102    3.4070    0.4958 H   0  0  0  0  0  0  0  0  0  0  0  0
   -2.8217    1.8565   -0.1887 H   0  0  0  0  0  0  0  0  0  0  0  0
   -3.2777   -0.3566    1.4535 H   0  0  0  0  0  0  0  0  0  0  0  0
   -3.5262   -1.5865    2.6877 H   0  0  0  0  0  0  0  0  0  0  0  0
    1.6736   -2.5186   -1.7210 H   0  0  0  0  0  0  0  0  0  0  0  0
    1.8042   -1.1923   -2.8486 H   0  0  0  0  0  0  0  0  0  0  0  0
    4.0464   -1.7901   -2.2520 H   0  0  0  0  0  0  0  0  0  0  0  0
    3.7357   -0.2412   -1.4646 H   0  0  0  0  0  0  0  0  0  0  0  0
    1.3400    1.1865   -2.1078 H   0  0  0  0  0  0  0  0  0  0  0  0
    0.6152   -2.1924    0.4546 H   0  0  0  0  0  0  0  0  0  0  0  0
    3.6203   -2.8912   -0.1879 H   0  0  0  0  0  0  0  0  0  0  0  0
    4.8267   -1.8006   -0.0377 H   0  0  0  0  0  0  0  0  0  0  0  0
  1  4  1  0
  2 14  1  0
  3 15  1  0
  4 16  1  0
  5  6  1  0
  5  9  1  0
  6 13  1  0
  7  9  2  0
  7 10  1  0
  8  9  1  0
  8 11  2  0
 10 12  2  0
 10 14  1  0
 11 12  1  0
 11 16  1  0
 12 15  1  0
  1 17  1  0
  1 18  1  0
  1 19  1  0
  2 20  1  0
  2 21  1  0
  2 22  1  0
  3 23  1  0
  3 24  1  0
  3 25  1  0
  4 26  1  0
  4 27  1  0
  5 28  1  0
  5 29  1  0
  6 30  1  0
  6 31  1  0
  7 32  1  0
  8 33  1  0
 13 34  1  0
 13 35  1  0
M  END
