
     RDKit          3D

 35 35  0  0  0  0  0  0  0  0999 V2000
   -2.2297   -3.2118   -0.7051 C   0  0  0  0  0  0  0  0  0  0  0  0
    0.6305    3.9957   -0.7726 C   0  0  0  0  0  0  0  0  0  0  0  0
   -3.1902    2.0696    0.9840 C   0  0  0  0  0  0  0  0  0  0  0  0
   -2.4378   -2.4194    0.5740 C   0  0  0  0  0  0  0  0  0  0  0  0
    2.5103   -0.6628    0.5155 C   0  0  0  0  0  0  0  0  0  0  0  0
    3.0832   -1.1788   -0.8097 C   0  0  0  0  0  0  0  0  0  0  0  0
    1.0024    1.3100    0.0446 C   0  0  0  0  0  0  0  0  0  0  0  0
   -0.0079   -0.8647    0.4276 C   0  0  0  0  0  0  0  0  0  0  0  0
    1.1379   -0.0566    0.3363 C   0  0  0  0  0  0  0  0  0  0  0  0
   -0.2606    1.8747   -0.1450 C   0  0  0  0  0  0  0  0  0  0  0  0
   -1.2812   -0.3211    0.2489 C   0  0  0  0  0  0  0  0  0  0  0  0
   -1.3950    1.0544   -0.0205 C   0  0  0  0  0  0  0  0  0  0  0  0
    4.4115   -1.7660   -0.6391 N   0  0  0  0  0  0  0  0  0  0  0  0
   -0.4925    3.1954   -0.4313 O   0  0  0  0  0  0  0  0  0  0  0  0
   -2.6435    1.5957   -0.2450 O   0  0  0  0  0  0  0  0  0  0  0  0
   -2.4577   -1.0192    0.3122 O   0  0  0  0  0  0  0  0  0  0  0  0
   -2.2964   -4.2858   -0.5089 H   0  0  0  0  0  0  0  0  0  0  0  0
   -1.2547   -3.0012   -1.1542 H   0  0  0  0  0  0  0  0  0  0  0  0
   -2.9863   -2.9426   -1.4495 H   0  0  0  0  0  0  0  0  0  0  0  0
    1.1785    3.5734   -1.6217 H   0  0  0  0  0  0  0  0  0  0  0  0
    0.2603    4.9807   -1.0727 H   0  0  0  0  0  0  0  0  0  0  0  0
    1.2873    4.1373    0.0917 H   0  0  0  0  0  0  0  0  0  0  0  0
   -2.5717    2.8629    1.4179 H   0  0  0  0  0  0  0  0  0  0  0  0
   -3.3209    1.2549    1.7046 H   0  0  0  0  0  0  0  0  0  0  0  0
   -4.1769    2.4913    0.7704 H   0  0  0  0  0  0  0  0  0  0  0  0
   -3.4261   -2.6710    0.9758 H   0  0  0  0  0  0  0  0  0  0  0  0
   -1.7219   -2.6891    1.3577 H   0  0  0  0  0  0  0  0  0  0  0  0
    2.4526   -1.4788    1.2478 H   0  0  0  0  0  0  0  0  0  0  0  0
    3.1829    0.0858    0.9540 H   0  0  0  0  0  0  0  0  0  0  0  0
    2.4187   -1.9350   -1.2431 H   0  0  0  0  0  0  0  0  0  0  0  0
    3.1515   -0.3627   -1.5381 H   0  0  0  0  0  0  0  0  0  0  0  0
    1.9013    1.9138   -0.0291 H   0  0  0  0  0  0  0  0  0  0  0  0
    0.1283   -1.9216    0.6310 H   0  0  0  0  0  0  0  0  0  0  0  0
    4.3673   -2.5318    0.0322 H   0  0  0  0  0  0  0  0  0  0  0  0
    5.0463   -1.0752   -0.2405 H   0  0  0  0  0  0  0  0  0  0  0  0
  1  4  1  0
  2 14  1  0
  3 15  1  0
  4 16  1  0
  5  6  1  0
  5  9  1  0
  6 13  1  0
  7  9  2  0
  7 10  1  0
  8  9  1  0
  8 11  2  0
 10 12  2  0
 10 14  1  0
 11 12  1  0
 11 16  1  0
 12 15  1  0
  1 17  1  0
  1 18  1  0
  1 19  1  0
  2 20  1  0
  2 21  1  0
  2 22  1  0
  3 23  1  0
  3 24  1  0
  3 25  1  0
  4 26  1  0
  4 27  1  0
  5 28  1  0
  5 29  1  0
  6 30  1  0
  6 31  1  0
  7 32  1  0
  8 33  1  0
 13 34  1  0
 13 35  1  0
M  END
