
     RDKit          3D

 37 38  0  0  0  0  0  0  0  0999 V2000
   -3.2214   -2.9092    1.4118 C   0  0  0  0  0  0  0  0  0  0  0  0
   -3.2012    3.0083    0.1199 C   0  0  0  0  0  0  0  0  0  0  0  0
   -2.5229   -1.5558    1.5114 C   0  0  0  0  0  0  0  0  0  0  0  0
   -2.6370    1.6588   -0.2824 C   0  0  0  0  0  0  0  0  0  0  0  0
   -1.7613   -1.2329    0.2174 C   0  0  0  0  0  0  0  0  0  0  0  0
    2.0386   -0.9664    0.0586 C   0  0  0  0  0  0  0  0  0  0  0  0
    3.4298   -1.1048    0.1471 C   0  0  0  0  0  0  0  0  0  0  0  0
    2.2994    0.8168   -1.5938 C   0  0  0  0  0  0  0  0  0  0  0  0
    5.8124    0.7195   -1.6869 C   0  0  0  0  0  0  0  0  0  0  0  0
    1.4749    0.0034   -0.8003 C   0  0  0  0  0  0  0  0  0  0  0  0
   -0.8736    0.0207    0.3325 C   0  0  0  0  0  0  0  0  0  0  0  0
    4.2123   -0.2848   -0.6387 C   0  0  0  0  0  0  0  0  0  0  0  0
    3.6628    0.6498   -1.4844 C   0  0  0  0  0  0  0  0  0  0  0  0
    0.0014    0.1595   -0.9366 C   0  0  0  0  0  0  0  0  0  0  0  0
   -1.5706    1.2884    0.6453 N   0  0  0  0  0  0  0  0  0  0  0  0
   -0.4491    0.3866   -2.0610 O   0  0  0  0  0  0  0  0  0  0  0  0
    5.5720   -0.2906   -0.6839 O   0  0  0  0  0  0  0  0  0  0  0  0
    4.6095    1.3503   -2.1696 O   0  0  0  0  0  0  0  0  0  0  0  0
   -3.9168   -2.9294    0.5715 H   0  0  0  0  0  0  0  0  0  0  0  0
   -2.4917   -3.7143    1.2695 H   0  0  0  0  0  0  0  0  0  0  0  0
   -3.7881   -3.1197    2.3249 H   0  0  0  0  0  0  0  0  0  0  0  0
   -3.9910    3.3038   -0.5717 H   0  0  0  0  0  0  0  0  0  0  0  0
   -2.4303    3.7830    0.0947 H   0  0  0  0  0  0  0  0  0  0  0  0
   -3.6262    2.9781    1.1296 H   0  0  0  0  0  0  0  0  0  0  0  0
   -1.8312   -1.5727    2.3594 H   0  0  0  0  0  0  0  0  0  0  0  0
   -3.2707   -0.7816    1.7172 H   0  0  0  0  0  0  0  0  0  0  0  0
   -3.4466    0.9266   -0.2555 H   0  0  0  0  0  0  0  0  0  0  0  0
   -2.2866    1.7372   -1.3089 H   0  0  0  0  0  0  0  0  0  0  0  0
   -2.4695   -1.1376   -0.6105 H   0  0  0  0  0  0  0  0  0  0  0  0
   -1.1208   -2.0879   -0.0466 H   0  0  0  0  0  0  0  0  0  0  0  0
    1.4066   -1.6409    0.6393 H   0  0  0  0  0  0  0  0  0  0  0  0
    3.8733   -1.8545    0.7911 H   0  0  0  0  0  0  0  0  0  0  0  0
    1.8795    1.5433   -2.2829 H   0  0  0  0  0  0  0  0  0  0  0  0
    6.3301    0.2508   -2.5385 H   0  0  0  0  0  0  0  0  0  0  0  0
    6.4691    1.4929   -1.2693 H   0  0  0  0  0  0  0  0  0  0  0  0
   -0.2013   -0.1254    1.1832 H   0  0  0  0  0  0  0  0  0  0  0  0
   -1.9638    1.2307    1.5828 H   0  0  0  0  0  0  0  0  0  0  0  0
  1  3  1  0
  2  4  1  0
  3  5  1  0
  4 15  1  0
  5 11  1  0
  6  7  2  0
  6 10  1  0
  7 12  1  0
  8 10  2  0
  8 13  1  0
  9 17  1  0
  9 18  1  0
 10 14  1  0
 11 14  1  0
 11 15  1  0
 12 13  2  0
 12 17  1  0
 13 18  1  0
 14 16  2  0
  1 19  1  0
  1 20  1  0
  1 21  1  0
  2 22  1  0
  2 23  1  0
  2 24  1  0
  3 25  1  0
  3 26  1  0
  4 27  1  0
  4 28  1  0
  5 29  1  0
  5 30  1  0
  6 31  1  0
  7 32  1  0
  8 33  1  0
  9 34  1  0
  9 35  1  0
 11 36  1  0
 15 37  1  0
M  END
