
     RDKit          3D

 32 33  0  0  0  0  0  0  0  0999 V2000
   -1.1099    2.6071   -1.5247 C   0  0  0  0  0  0  0  0  0  0  0  0
    2.9498   -1.5014    0.3002 C   0  0  0  0  0  0  0  0  0  0  0  0
    3.5313   -0.7980    1.3417 C   0  0  0  0  0  0  0  0  0  0  0  0
    1.7394   -1.0665   -0.2539 C   0  0  0  0  0  0  0  0  0  0  0  0
    2.9146    0.3573    1.8042 C   0  0  0  0  0  0  0  0  0  0  0  0
   -1.7837   -0.6035    1.3975 C   0  0  0  0  0  0  0  0  0  0  0  0
   -1.3929   -1.8524   -0.8101 C   0  0  0  0  0  0  0  0  0  0  0  0
   -1.4340    0.6890    0.6689 C   0  0  0  0  0  0  0  0  0  0  0  0
   -0.9097   -0.5345   -1.4263 C   0  0  0  0  0  0  0  0  0  0  0  0
   -2.2662   -1.6219    0.3977 C   0  0  0  0  0  0  0  0  0  0  0  0
    1.0444    0.0677    0.2282 C   0  0  0  0  0  0  0  0  0  0  0  0
    1.7011    0.8008    1.2493 C   0  0  0  0  0  0  0  0  0  0  0  0
   -0.3117    0.5011   -0.4048 C   0  0  0  0  0  0  0  0  0  0  0  0
    1.1524    2.3255    1.8631 Cl  0  0  0  0  0  0  0  0  0  0  0  0
   -0.0093    1.7334   -1.1649 N   0  0  0  0  0  0  0  0  0  0  0  0
   -3.2681   -2.3049    0.6034 O   0  0  0  0  0  0  0  0  0  0  0  0
   -0.7204    3.4458   -2.1114 H   0  0  0  0  0  0  0  0  0  0  0  0
   -1.5871    3.0436   -0.6423 H   0  0  0  0  0  0  0  0  0  0  0  0
   -1.8634    2.1062   -2.1378 H   0  0  0  0  0  0  0  0  0  0  0  0
    3.4402   -2.3877   -0.0964 H   0  0  0  0  0  0  0  0  0  0  0  0
    4.4726   -1.1277    1.7725 H   0  0  0  0  0  0  0  0  0  0  0  0
    1.3729   -1.6481   -1.0941 H   0  0  0  0  0  0  0  0  0  0  0  0
    3.3963    0.9315    2.5931 H   0  0  0  0  0  0  0  0  0  0  0  0
   -0.9313   -1.0162    1.9452 H   0  0  0  0  0  0  0  0  0  0  0  0
   -2.5877   -0.4120    2.1165 H   0  0  0  0  0  0  0  0  0  0  0  0
   -1.9724   -2.4043   -1.5590 H   0  0  0  0  0  0  0  0  0  0  0  0
   -0.5681   -2.4978   -0.4991 H   0  0  0  0  0  0  0  0  0  0  0  0
   -1.2018    1.4543    1.4091 H   0  0  0  0  0  0  0  0  0  0  0  0
   -2.3539    1.0376    0.1780 H   0  0  0  0  0  0  0  0  0  0  0  0
   -1.7864   -0.0874   -1.9153 H   0  0  0  0  0  0  0  0  0  0  0  0
   -0.2076   -0.7463   -2.2425 H   0  0  0  0  0  0  0  0  0  0  0  0
    0.5507    1.5096   -1.9860 H   0  0  0  0  0  0  0  0  0  0  0  0
  1 15  1  0
  2  3  2  0
  2  4  1  0
  3  5  1  0
  4 11  2  0
  5 12  2  0
  6  8  1  0
  6 10  1  0
  7  9  1  0
  7 10  1  0
  8 13  1  0
  9 13  1  0
 10 16  2  0
 11 12  1  0
 11 13  1  0
 12 14  1  0
 13 15  1  0
  1 17  1  0
  1 18  1  0
  1 19  1  0
  2 20  1  0
  3 21  1  0
  4 22  1  0
  5 23  1  0
  6 24  1  0
  6 25  1  0
  7 26  1  0
  7 27  1  0
  8 28  1  0
  8 29  1  0
  9 30  1  0
  9 31  1  0
 15 32  1  0
M  END
