
     RDKit          3D

 31 33  0  0  0  0  0  0  0  0999 V2000
    1.2106    2.6389    0.1299 C   0  0  0  0  0  0  0  0  0  0  0  0
    3.1856   -2.1523   -0.5623 C   0  0  0  0  0  0  0  0  0  0  0  0
    3.8767   -0.9479   -0.4977 C   0  0  0  0  0  0  0  0  0  0  0  0
    1.7951   -2.1798   -0.4172 C   0  0  0  0  0  0  0  0  0  0  0  0
    3.1999    0.2575   -0.2897 C   0  0  0  0  0  0  0  0  0  0  0  0
   -1.4384   -1.6366   -0.0105 C   0  0  0  0  0  0  0  0  0  0  0  0
   -1.6073    1.5322    0.4690 C   0  0  0  0  0  0  0  0  0  0  0  0
   -2.7350   -1.0396   -0.5818 C   0  0  0  0  0  0  0  0  0  0  0  0
   -2.7270    0.7329    1.1584 C   0  0  0  0  0  0  0  0  0  0  0  0
    1.0872   -0.9774   -0.2044 C   0  0  0  0  0  0  0  0  0  0  0  0
   -0.2941   -0.6656   -0.0148 C   0  0  0  0  0  0  0  0  0  0  0  0
    1.8014    0.2215   -0.1482 C   0  0  0  0  0  0  0  0  0  0  0  0
   -0.3868    0.7042    0.1822 C   0  0  0  0  0  0  0  0  0  0  0  0
   -3.5149   -0.1680    0.3089 N   0  0  0  0  0  0  0  0  0  0  0  0
    0.8804    1.2309    0.0546 N   0  0  0  0  0  0  0  0  0  0  0  0
    1.3570    2.8967    1.1815 H   0  0  0  0  0  0  0  0  0  0  0  0
    2.1186    2.8386   -0.4432 H   0  0  0  0  0  0  0  0  0  0  0  0
    0.3956    3.2255   -0.3014 H   0  0  0  0  0  0  0  0  0  0  0  0
    3.7273   -3.0806   -0.7236 H   0  0  0  0  0  0  0  0  0  0  0  0
    4.9583   -0.9417   -0.6093 H   0  0  0  0  0  0  0  0  0  0  0  0
    1.2659   -3.1268   -0.4634 H   0  0  0  0  0  0  0  0  0  0  0  0
    3.7532    1.1891   -0.2387 H   0  0  0  0  0  0  0  0  0  0  0  0
   -1.1691   -2.5016   -0.6295 H   0  0  0  0  0  0  0  0  0  0  0  0
   -1.6004   -2.0173    1.0051 H   0  0  0  0  0  0  0  0  0  0  0  0
   -1.9760    1.9818   -0.4607 H   0  0  0  0  0  0  0  0  0  0  0  0
   -1.3342    2.3565    1.1393 H   0  0  0  0  0  0  0  0  0  0  0  0
   -2.5175   -0.4996   -1.5127 H   0  0  0  0  0  0  0  0  0  0  0  0
   -3.3966   -1.8687   -0.8595 H   0  0  0  0  0  0  0  0  0  0  0  0
   -3.4342    1.4496    1.5940 H   0  0  0  0  0  0  0  0  0  0  0  0
   -2.3246    0.1681    2.0089 H   0  0  0  0  0  0  0  0  0  0  0  0
   -4.1570    0.3795   -0.2631 H   0  0  0  0  0  0  0  0  0  0  0  0
  1 15  1  0
  2  3  2  0
  2  4  1  0
  3  5  1  0
  4 10  2  0
  5 12  2  0
  6  8  1  0
  6 11  1  0
  7  9  1  0
  7 13  1  0
  8 14  1  0
  9 14  1  0
 10 11  1  0
 10 12  1  0
 11 13  2  0
 12 15  1  0
 13 15  1  0
  1 16  1  0
  1 17  1  0
  1 18  1  0
  2 19  1  0
  3 20  1  0
  4 21  1  0
  5 22  1  0
  6 23  1  0
  6 24  1  0
  7 25  1  0
  7 26  1  0
  8 27  1  0
  8 28  1  0
  9 29  1  0
  9 30  1  0
 14 31  1  0
M  END
