
     RDKit          3D

 34 35  0  0  0  0  0  0  0  0999 V2000
    5.2451   -0.4573   -0.1410 C   0  0  0  0  0  0  0  0  0  0  0  0
   -3.8027    0.7075   -2.5043 C   0  0  0  0  0  0  0  0  0  0  0  0
    0.9405    1.7565    0.3858 C   0  0  0  0  0  0  0  0  0  0  0  0
    1.9144    1.2571   -0.6888 C   0  0  0  0  0  0  0  0  0  0  0  0
   -1.9289    0.2904   -0.4292 C   0  0  0  0  0  0  0  0  0  0  0  0
   -2.5130   -1.7292    1.4672 C   0  0  0  0  0  0  0  0  0  0  0  0
    0.5818   -0.0100    2.2165 C   0  0  0  0  0  0  0  0  0  0  0  0
    4.0125    0.1238   -0.7511 C   0  0  0  0  0  0  0  0  0  0  0  0
    0.1950    0.6464    1.0647 C   0  0  0  0  0  0  0  0  0  0  0  0
   -1.0461    0.0598    0.6513 C   0  0  0  0  0  0  0  0  0  0  0  0
   -1.3613   -0.9410    1.5697 C   0  0  0  0  0  0  0  0  0  0  0  0
   -3.3649   -1.4759    0.3864 C   0  0  0  0  0  0  0  0  0  0  0  0
   -3.0932   -0.4796   -0.5598 C   0  0  0  0  0  0  0  0  0  0  0  0
    3.1121    0.7089   -0.0559 N   0  0  0  0  0  0  0  0  0  0  0  0
   -0.3561   -0.9606    2.5084 N   0  0  0  0  0  0  0  0  0  0  0  0
    3.9776   -0.0302   -2.0857 O   0  0  0  0  0  0  0  0  0  0  0  0
   -4.5064   -2.2266    0.2475 O   0  0  0  0  0  0  0  0  0  0  0  0
   -4.0130   -0.3387   -1.5682 O   0  0  0  0  0  0  0  0  0  0  0  0
    5.3160   -1.5181   -0.3960 H   0  0  0  0  0  0  0  0  0  0  0  0
    6.1242    0.0708   -0.5202 H   0  0  0  0  0  0  0  0  0  0  0  0
    5.2135   -0.3575    0.9476 H   0  0  0  0  0  0  0  0  0  0  0  0
   -4.6381    0.6973   -3.2112 H   0  0  0  0  0  0  0  0  0  0  0  0
   -3.7969    1.6855   -2.0118 H   0  0  0  0  0  0  0  0  0  0  0  0
   -2.8828    0.5462   -3.0759 H   0  0  0  0  0  0  0  0  0  0  0  0
    0.2132    2.4303   -0.0837 H   0  0  0  0  0  0  0  0  0  0  0  0
    1.4773    2.3523    1.1348 H   0  0  0  0  0  0  0  0  0  0  0  0
    2.2011    2.1078   -1.3183 H   0  0  0  0  0  0  0  0  0  0  0  0
    1.4207    0.5072   -1.3186 H   0  0  0  0  0  0  0  0  0  0  0  0
   -1.6776    1.0682   -1.1386 H   0  0  0  0  0  0  0  0  0  0  0  0
   -2.7266   -2.4998    2.1980 H   0  0  0  0  0  0  0  0  0  0  0  0
    1.4564    0.1170    2.8412 H   0  0  0  0  0  0  0  0  0  0  0  0
   -0.3167   -1.5913    3.2966 H   0  0  0  0  0  0  0  0  0  0  0  0
    3.1760    0.3481   -2.4701 H   0  0  0  0  0  0  0  0  0  0  0  0
   -4.5532   -2.8654    0.9745 H   0  0  0  0  0  0  0  0  0  0  0  0
  1  8  1  0
  2 18  1  0
  3  4  1  0
  3  9  1  0
  4 14  1  0
  5 10  2  0
  5 13  1  0
  6 11  2  0
  6 12  1  0
  7  9  2  0
  7 15  1  0
  8 14  2  3
  8 16  1  0
  9 10  1  0
 10 11  1  0
 11 15  1  0
 12 13  2  0
 12 17  1  0
 13 18  1  0
  1 19  1  0
  1 20  1  0
  1 21  1  0
  2 22  1  0
  2 23  1  0
  2 24  1  0
  3 25  1  0
  3 26  1  0
  4 27  1  0
  4 28  1  0
  5 29  1  0
  6 30  1  0
  7 31  1  0
 15 32  1  0
 16 33  1  0
 17 34  1  0
M  END
