
     RDKit          3D

 36 37  0  0  0  0  0  0  0  0999 V2000
   -4.4250    2.0756    0.1617 C   0  0  0  0  0  0  0  0  0  0  0  0
   -2.6636   -2.0080   -0.2134 C   0  0  0  0  0  0  0  0  0  0  0  0
   -4.0071    0.6524    0.5035 C   0  0  0  0  0  0  0  0  0  0  0  0
    3.4426    2.2468    0.5141 C   0  0  0  0  0  0  0  0  0  0  0  0
    4.7211    1.6949    0.5122 C   0  0  0  0  0  0  0  0  0  0  0  0
    2.3311    1.4727    0.1614 C   0  0  0  0  0  0  0  0  0  0  0  0
    4.9275    0.3580    0.1598 C   0  0  0  0  0  0  0  0  0  0  0  0
    0.1370   -0.8394   -0.7532 C   0  0  0  0  0  0  0  0  0  0  0  0
   -2.5376    0.4026    0.1417 C   0  0  0  0  0  0  0  0  0  0  0  0
   -0.5951   -1.0112    0.5917 C   0  0  0  0  0  0  0  0  0  0  0  0
    2.4056   -2.0487   -0.8217 C   0  0  0  0  0  0  0  0  0  0  0  0
    1.6253   -0.9304   -0.6004 C   0  0  0  0  0  0  0  0  0  0  0  0
    2.5114    0.1212   -0.1988 C   0  0  0  0  0  0  0  0  0  0  0  0
    3.8046   -0.4018   -0.1899 C   0  0  0  0  0  0  0  0  0  0  0  0
    3.7104   -1.7192   -0.5719 N   0  0  0  0  0  0  0  0  0  0  0  0
   -2.0703   -0.9245    0.5685 N   0  0  0  0  0  0  0  0  0  0  0  0
   -5.4758    2.2348    0.4232 H   0  0  0  0  0  0  0  0  0  0  0  0
   -3.8239    2.8050    0.7139 H   0  0  0  0  0  0  0  0  0  0  0  0
   -4.3073    2.2721   -0.9087 H   0  0  0  0  0  0  0  0  0  0  0  0
   -3.7422   -2.0726   -0.0390 H   0  0  0  0  0  0  0  0  0  0  0  0
   -2.2526   -2.9771    0.0918 H   0  0  0  0  0  0  0  0  0  0  0  0
   -2.4985   -1.8884   -1.2895 H   0  0  0  0  0  0  0  0  0  0  0  0
   -4.1630    0.4821    1.5754 H   0  0  0  0  0  0  0  0  0  0  0  0
   -4.6632   -0.0383   -0.0369 H   0  0  0  0  0  0  0  0  0  0  0  0
    3.3038    3.2885    0.7926 H   0  0  0  0  0  0  0  0  0  0  0  0
    5.5726    2.3120    0.7897 H   0  0  0  0  0  0  0  0  0  0  0  0
    1.3387    1.9132    0.1680 H   0  0  0  0  0  0  0  0  0  0  0  0
    5.9248   -0.0691    0.1600 H   0  0  0  0  0  0  0  0  0  0  0  0
   -0.1917   -1.6077   -1.4633 H   0  0  0  0  0  0  0  0  0  0  0  0
   -0.1101    0.1291   -1.2032 H   0  0  0  0  0  0  0  0  0  0  0  0
   -2.3937    0.5444   -0.9368 H   0  0  0  0  0  0  0  0  0  0  0  0
   -1.9397    1.1724    0.6471 H   0  0  0  0  0  0  0  0  0  0  0  0
   -0.3135   -1.9773    1.0329 H   0  0  0  0  0  0  0  0  0  0  0  0
   -0.2210   -0.2656    1.3064 H   0  0  0  0  0  0  0  0  0  0  0  0
    2.1418   -3.0501   -1.1349 H   0  0  0  0  0  0  0  0  0  0  0  0
    4.4966   -2.3484   -0.6538 H   0  0  0  0  0  0  0  0  0  0  0  0
  1  3  1  0
  2 16  1  0
  3  9  1  0
  4  5  2  0
  4  6  1  0
  5  7  1  0
  6 13  2  0
  7 14  2  0
  8 10  1  0
  8 12  1  0
  9 16  1  0
 10 16  1  0
 11 12  2  0
 11 15  1  0
 12 13  1  0
 13 14  1  0
 14 15  1  0
  1 17  1  0
  1 18  1  0
  1 19  1  0
  2 20  1  0
  2 21  1  0
  2 22  1  0
  3 23  1  0
  3 24  1  0
  4 25  1  0
  5 26  1  0
  6 27  1  0
  7 28  1  0
  8 29  1  0
  8 30  1  0
  9 31  1  0
  9 32  1  0
 10 33  1  0
 10 34  1  0
 11 35  1  0
 15 36  1  0
M  END
