
     RDKit          3D

 37 38  0  0  0  0  0  0  0  0999 V2000
   -2.3826    2.3003   -1.0187 C   0  0  0  0  0  0  0  0  0  0  0  0
   -3.6152   -1.7739    0.5095 C   0  0  0  0  0  0  0  0  0  0  0  0
   -1.8006    0.9423   -1.4039 C   0  0  0  0  0  0  0  0  0  0  0  0
   -3.4029   -0.4169   -0.1536 C   0  0  0  0  0  0  0  0  0  0  0  0
    4.6509    0.9584   -0.1719 C   0  0  0  0  0  0  0  0  0  0  0  0
    4.2299   -0.0063   -1.0917 C   0  0  0  0  0  0  0  0  0  0  0  0
    3.8568    1.3071    0.9189 C   0  0  0  0  0  0  0  0  0  0  0  0
   -0.1963   -1.1079    1.0221 C   0  0  0  0  0  0  0  0  0  0  0  0
   -1.1754    0.0564    0.7900 C   0  0  0  0  0  0  0  0  0  0  0  0
    1.1308   -1.8762   -1.0391 C   0  0  0  0  0  0  0  0  0  0  0  0
    0.9805   -1.0982    0.0927 C   0  0  0  0  0  0  0  0  0  0  0  0
    2.9844   -0.6104   -0.8787 C   0  0  0  0  0  0  0  0  0  0  0  0
    2.6149    0.6918    1.1134 C   0  0  0  0  0  0  0  0  0  0  0  0
    2.1608   -0.2883    0.2031 C   0  0  0  0  0  0  0  0  0  0  0  0
    2.3327   -1.5728   -1.6138 N   0  0  0  0  0  0  0  0  0  0  0  0
   -1.9894   -0.1396   -0.4278 N   0  0  0  0  0  0  0  0  0  0  0  0
    1.8395    1.0474    2.1910 O   0  0  0  0  0  0  0  0  0  0  0  0
   -3.4729    2.2618   -0.9329 H   0  0  0  0  0  0  0  0  0  0  0  0
   -1.9749    2.6670   -0.0720 H   0  0  0  0  0  0  0  0  0  0  0  0
   -2.1410    3.0380   -1.7912 H   0  0  0  0  0  0  0  0  0  0  0  0
   -3.1836   -1.8100    1.5143 H   0  0  0  0  0  0  0  0  0  0  0  0
   -3.1719   -2.5779   -0.0876 H   0  0  0  0  0  0  0  0  0  0  0  0
   -4.6867   -1.9791    0.6034 H   0  0  0  0  0  0  0  0  0  0  0  0
   -2.2425    0.6328   -2.3595 H   0  0  0  0  0  0  0  0  0  0  0  0
   -0.7293    1.0587   -1.6117 H   0  0  0  0  0  0  0  0  0  0  0  0
   -3.8518    0.3673    0.4680 H   0  0  0  0  0  0  0  0  0  0  0  0
   -3.9599   -0.4343   -1.0988 H   0  0  0  0  0  0  0  0  0  0  0  0
    5.6140    1.4439   -0.3126 H   0  0  0  0  0  0  0  0  0  0  0  0
    4.8513   -0.2740   -1.9402 H   0  0  0  0  0  0  0  0  0  0  0  0
    4.2181    2.0623    1.6100 H   0  0  0  0  0  0  0  0  0  0  0  0
    0.1714   -1.0576    2.0546 H   0  0  0  0  0  0  0  0  0  0  0  0
   -0.7207   -2.0683    0.9443 H   0  0  0  0  0  0  0  0  0  0  0  0
   -1.8199    0.1539    1.6729 H   0  0  0  0  0  0  0  0  0  0  0  0
   -0.6070    0.9939    0.7472 H   0  0  0  0  0  0  0  0  0  0  0  0
    0.4715   -2.6100   -1.4833 H   0  0  0  0  0  0  0  0  0  0  0  0
    2.6936   -1.9911   -2.4592 H   0  0  0  0  0  0  0  0  0  0  0  0
    2.3234    1.7096    2.7092 H   0  0  0  0  0  0  0  0  0  0  0  0
  1  3  1  0
  2  4  1  0
  3 16  1  0
  4 16  1  0
  5  6  2  0
  5  7  1  0
  6 12  1  0
  7 13  2  0
  8  9  1  0
  8 11  1  0
  9 16  1  0
 10 11  2  0
 10 15  1  0
 11 14  1  0
 12 14  2  0
 12 15  1  0
 13 14  1  0
 13 17  1  0
  1 18  1  0
  1 19  1  0
  1 20  1  0
  2 21  1  0
  2 22  1  0
  2 23  1  0
  3 24  1  0
  3 25  1  0
  4 26  1  0
  4 27  1  0
  5 28  1  0
  6 29  1  0
  7 30  1  0
  8 31  1  0
  8 32  1  0
  9 33  1  0
  9 34  1  0
 10 35  1  0
 15 36  1  0
 17 37  1  0
M  END
