
     RDKit          3D

 34 35  0  0  0  0  0  0  0  0999 V2000
    3.6726    1.2272   -0.6371 C   0  0  0  0  0  0  0  0  0  0  0  0
    4.0697   -1.1373   -0.4187 C   0  0  0  0  0  0  0  0  0  0  0  0
   -3.2729   -2.5489    0.6794 C   0  0  0  0  0  0  0  0  0  0  0  0
   -3.5643    1.9514    0.6016 C   0  0  0  0  0  0  0  0  0  0  0  0
   -3.6430    0.5578    0.6752 C   0  0  0  0  0  0  0  0  0  0  0  0
   -2.3831    2.5843    0.2247 C   0  0  0  0  0  0  0  0  0  0  0  0
    1.0808   -0.4722   -0.7029 C   0  0  0  0  0  0  0  0  0  0  0  0
    2.0167   -0.1655    0.4824 C   0  0  0  0  0  0  0  0  0  0  0  0
   -0.9965   -1.8272   -0.0314 C   0  0  0  0  0  0  0  0  0  0  0  0
   -0.3463   -0.6316   -0.2702 C   0  0  0  0  0  0  0  0  0  0  0  0
   -2.4965   -0.1893    0.3578 C   0  0  0  0  0  0  0  0  0  0  0  0
   -1.2488    1.8284   -0.0891 C   0  0  0  0  0  0  0  0  0  0  0  0
   -1.2946    0.4173   -0.0258 C   0  0  0  0  0  0  0  0  0  0  0  0
    3.4474    0.0384    0.1808 N   0  0  0  0  0  0  0  0  0  0  0  0
   -2.2823   -1.5508    0.3440 N   0  0  0  0  0  0  0  0  0  0  0  0
   -0.0880    2.4650   -0.4576 O   0  0  0  0  0  0  0  0  0  0  0  0
    3.2727    1.1252   -1.6515 H   0  0  0  0  0  0  0  0  0  0  0  0
    4.7459    1.4333   -0.7179 H   0  0  0  0  0  0  0  0  0  0  0  0
    3.2199    2.1104   -0.1727 H   0  0  0  0  0  0  0  0  0  0  0  0
    3.6961   -1.3463   -1.4268 H   0  0  0  0  0  0  0  0  0  0  0  0
    3.9050   -2.0238    0.2036 H   0  0  0  0  0  0  0  0  0  0  0  0
    5.1549   -0.9994   -0.4845 H   0  0  0  0  0  0  0  0  0  0  0  0
   -2.8360   -3.5463    0.5849 H   0  0  0  0  0  0  0  0  0  0  0  0
   -3.5955   -2.3833    1.7105 H   0  0  0  0  0  0  0  0  0  0  0  0
   -4.1139   -2.4473   -0.0113 H   0  0  0  0  0  0  0  0  0  0  0  0
   -4.4408    2.5483    0.8436 H   0  0  0  0  0  0  0  0  0  0  0  0
   -4.5689    0.0750    0.9712 H   0  0  0  0  0  0  0  0  0  0  0  0
   -2.3600    3.6686    0.1790 H   0  0  0  0  0  0  0  0  0  0  0  0
    1.3988   -1.3964   -1.2006 H   0  0  0  0  0  0  0  0  0  0  0  0
    1.1368    0.3189   -1.4585 H   0  0  0  0  0  0  0  0  0  0  0  0
    1.6514    0.7204    1.0187 H   0  0  0  0  0  0  0  0  0  0  0  0
    1.9383   -0.9807    1.2150 H   0  0  0  0  0  0  0  0  0  0  0  0
   -0.6383   -2.8463   -0.1005 H   0  0  0  0  0  0  0  0  0  0  0  0
   -0.2373    3.4226   -0.4157 H   0  0  0  0  0  0  0  0  0  0  0  0
  1 14  1  0
  2 14  1  0
  3 15  1  0
  4  5  2  0
  4  6  1  0
  5 11  1  0
  6 12  2  0
  7  8  1  0
  7 10  1  0
  8 14  1  0
  9 10  2  0
  9 15  1  0
 10 13  1  0
 11 13  2  0
 11 15  1  0
 12 13  1  0
 12 16  1  0
  1 17  1  0
  1 18  1  0
  1 19  1  0
  2 20  1  0
  2 21  1  0
  2 22  1  0
  3 23  1  0
  3 24  1  0
  3 25  1  0
  4 26  1  0
  5 27  1  0
  6 28  1  0
  7 29  1  0
  7 30  1  0
  8 31  1  0
  8 32  1  0
  9 33  1  0
 16 34  1  0
M  END
