
     RDKit          3D

 34 35  0  0  0  0  0  0  0  0999 V2000
   -3.2535   -2.2605   -0.8759 C   0  0  0  0  0  0  0  0  0  0  0  0
   -4.6389   -0.6850    0.3051 C   0  0  0  0  0  0  0  0  0  0  0  0
    5.6132   -0.5668   -0.6567 C   0  0  0  0  0  0  0  0  0  0  0  0
    2.7834   -0.4609   -0.6866 C   0  0  0  0  0  0  0  0  0  0  0  0
    1.3831   -0.3636   -0.6720 C   0  0  0  0  0  0  0  0  0  0  0  0
   -1.8228    0.4233   -0.3251 C   0  0  0  0  0  0  0  0  0  0  0  0
   -2.2249   -0.6782    0.6744 C   0  0  0  0  0  0  0  0  0  0  0  0
    2.9770    1.6531    0.4797 C   0  0  0  0  0  0  0  0  0  0  0  0
   -0.5592    2.3718    0.7799 C   0  0  0  0  0  0  0  0  0  0  0  0
   -0.5942    1.1618    0.1137 C   0  0  0  0  0  0  0  0  0  0  0  0
    3.5744    0.5360   -0.1173 C   0  0  0  0  0  0  0  0  0  0  0  0
    0.7654    0.7537   -0.0754 C   0  0  0  0  0  0  0  0  0  0  0  0
    1.5788    1.7355    0.4869 C   0  0  0  0  0  0  0  0  0  0  0  0
    0.7502    2.7054    0.9985 N   0  0  0  0  0  0  0  0  0  0  0  0
   -3.4168   -1.4820    0.3480 N   0  0  0  0  0  0  0  0  0  0  0  0
    4.9441    0.5446   -0.0748 O   0  0  0  0  0  0  0  0  0  0  0  0
   -2.3446   -2.8705   -0.8299 H   0  0  0  0  0  0  0  0  0  0  0  0
   -4.0909   -2.9568   -0.9972 H   0  0  0  0  0  0  0  0  0  0  0  0
   -3.2051   -1.6331   -1.7722 H   0  0  0  0  0  0  0  0  0  0  0  0
   -5.5146   -1.3377    0.2147 H   0  0  0  0  0  0  0  0  0  0  0  0
   -4.7665   -0.1189    1.2343 H   0  0  0  0  0  0  0  0  0  0  0  0
   -4.6553    0.0180   -0.5346 H   0  0  0  0  0  0  0  0  0  0  0  0
    5.4044   -0.6360   -1.7294 H   0  0  0  0  0  0  0  0  0  0  0  0
    6.6894   -0.4088   -0.5372 H   0  0  0  0  0  0  0  0  0  0  0  0
    5.3546   -1.4977   -0.1414 H   0  0  0  0  0  0  0  0  0  0  0  0
    3.2194   -1.3368   -1.1550 H   0  0  0  0  0  0  0  0  0  0  0  0
    0.7817   -1.1499   -1.1186 H   0  0  0  0  0  0  0  0  0  0  0  0
   -2.6415    1.1429   -0.4445 H   0  0  0  0  0  0  0  0  0  0  0  0
   -1.6367   -0.0072   -1.3158 H   0  0  0  0  0  0  0  0  0  0  0  0
   -1.3795   -1.3655    0.8139 H   0  0  0  0  0  0  0  0  0  0  0  0
   -2.3776   -0.2251    1.6636 H   0  0  0  0  0  0  0  0  0  0  0  0
    3.5896    2.4309    0.9242 H   0  0  0  0  0  0  0  0  0  0  0  0
   -1.3555    3.0222    1.1168 H   0  0  0  0  0  0  0  0  0  0  0  0
    1.0697    3.5415    1.4677 H   0  0  0  0  0  0  0  0  0  0  0  0
  1 15  1  0
  2 15  1  0
  3 16  1  0
  4  5  2  0
  4 11  1  0
  5 12  1  0
  6  7  1  0
  6 10  1  0
  7 15  1  0
  8 11  2  0
  8 13  1  0
  9 10  2  0
  9 14  1  0
 10 12  1  0
 11 16  1  0
 12 13  2  0
 13 14  1  0
  1 17  1  0
  1 18  1  0
  1 19  1  0
  2 20  1  0
  2 21  1  0
  2 22  1  0
  3 23  1  0
  3 24  1  0
  3 25  1  0
  4 26  1  0
  5 27  1  0
  6 28  1  0
  6 29  1  0
  7 30  1  0
  7 31  1  0
  8 32  1  0
  9 33  1  0
 14 34  1  0
M  END
