
     RDKit          3D

 33 34  0  0  0  0  0  0  0  0999 V2000
   -2.3766   -1.6674   -0.6508 C   0  0  0  0  0  0  0  0  0  0  0  0
   -4.6660    0.1650    0.1009 C   0  0  0  0  0  0  0  0  0  0  0  0
    4.4033    0.7891   -0.3559 C   0  0  0  0  0  0  0  0  0  0  0  0
    4.0479   -0.4684    0.4505 C   0  0  0  0  0  0  0  0  0  0  0  0
    3.1646    1.1399   -1.1928 C   0  0  0  0  0  0  0  0  0  0  0  0
    0.3598   -0.6734    1.4360 C   0  0  0  0  0  0  0  0  0  0  0  0
    1.7272   -0.9569    1.4901 C   0  0  0  0  0  0  0  0  0  0  0  0
   -1.6437    0.5251    0.4465 C   0  0  0  0  0  0  0  0  0  0  0  0
    0.7127    0.8882   -0.3957 C   0  0  0  0  0  0  0  0  0  0  0  0
   -2.3618   -0.1377   -0.7536 C   0  0  0  0  0  0  0  0  0  0  0  0
   -0.1577    0.2451    0.4982 C   0  0  0  0  0  0  0  0  0  0  0  0
    2.5689   -0.3040    0.6079 C   0  0  0  0  0  0  0  0  0  0  0  0
    2.0674    0.6087   -0.3245 C   0  0  0  0  0  0  0  0  0  0  0  0
   -3.7186    0.4013   -0.9792 N   0  0  0  0  0  0  0  0  0  0  0  0
   -1.3623   -2.0729   -0.7276 H   0  0  0  0  0  0  0  0  0  0  0  0
   -2.9599   -2.1090   -1.4666 H   0  0  0  0  0  0  0  0  0  0  0  0
   -2.8008   -2.0105    0.2985 H   0  0  0  0  0  0  0  0  0  0  0  0
   -4.8319   -0.9017    0.2759 H   0  0  0  0  0  0  0  0  0  0  0  0
   -4.3554    0.6420    1.0348 H   0  0  0  0  0  0  0  0  0  0  0  0
   -5.6345    0.5940   -0.1765 H   0  0  0  0  0  0  0  0  0  0  0  0
    5.2983    0.6523   -0.9708 H   0  0  0  0  0  0  0  0  0  0  0  0
    4.6123    1.6142    0.3394 H   0  0  0  0  0  0  0  0  0  0  0  0
    4.5722   -0.4886    1.4099 H   0  0  0  0  0  0  0  0  0  0  0  0
    4.2674   -1.3782   -0.1176 H   0  0  0  0  0  0  0  0  0  0  0  0
    3.0856    2.2184   -1.3557 H   0  0  0  0  0  0  0  0  0  0  0  0
    3.1733    0.6138   -2.1528 H   0  0  0  0  0  0  0  0  0  0  0  0
   -0.3094   -1.1820    2.1270 H   0  0  0  0  0  0  0  0  0  0  0  0
    2.1138   -1.6742    2.2066 H   0  0  0  0  0  0  0  0  0  0  0  0
   -2.1053    0.2096    1.3908 H   0  0  0  0  0  0  0  0  0  0  0  0
   -1.7736    1.6151    0.4016 H   0  0  0  0  0  0  0  0  0  0  0  0
    0.3364    1.5918   -1.1326 H   0  0  0  0  0  0  0  0  0  0  0  0
   -1.8016    0.1060   -1.6657 H   0  0  0  0  0  0  0  0  0  0  0  0
   -3.6520    1.4054   -1.1465 H   0  0  0  0  0  0  0  0  0  0  0  0
  1 10  1  0
  2 14  1  0
  3  4  1  0
  3  5  1  0
  4 12  1  0
  5 13  1  0
  6  7  1  0
  6 11  2  0
  7 12  2  0
  8 10  1  0
  8 11  1  0
  9 11  1  0
  9 13  2  0
 10 14  1  0
 12 13  1  0
  1 15  1  0
  1 16  1  0
  1 17  1  0
  2 18  1  0
  2 19  1  0
  2 20  1  0
  3 21  1  0
  3 22  1  0
  4 23  1  0
  4 24  1  0
  5 25  1  0
  5 26  1  0
  6 27  1  0
  7 28  1  0
  8 29  1  0
  8 30  1  0
  9 31  1  0
 10 32  1  0
 14 33  1  0
M  END
