
     RDKit          3D

 35 36  0  0  0  0  0  0  0  0999 V2000
   -1.0139   -1.2312   -2.4806 C   0  0  0  0  0  0  0  0  0  0  0  0
   -3.9499    1.4460    1.8857 C   0  0  0  0  0  0  0  0  0  0  0  0
   -1.5172   -0.8381   -1.0967 C   0  0  0  0  0  0  0  0  0  0  0  0
   -3.4278    0.8662    0.5782 C   0  0  0  0  0  0  0  0  0  0  0  0
    1.0847    0.2800    1.2400 C   0  0  0  0  0  0  0  0  0  0  0  0
    2.1026   -0.3832    1.9352 C   0  0  0  0  0  0  0  0  0  0  0  0
    0.0640    1.2074   -0.9123 C   0  0  0  0  0  0  0  0  0  0  0  0
    2.2820    0.0007   -0.8550 C   0  0  0  0  0  0  0  0  0  0  0  0
    5.0328   -1.7059    0.5186 C   0  0  0  0  0  0  0  0  0  0  0  0
    1.1535    0.4700   -0.1588 C   0  0  0  0  0  0  0  0  0  0  0  0
   -1.3959    0.6733   -0.8022 C   0  0  0  0  0  0  0  0  0  0  0  0
    3.1822   -0.8374    1.2128 C   0  0  0  0  0  0  0  0  0  0  0  0
    3.2701   -0.6493   -0.1447 C   0  0  0  0  0  0  0  0  0  0  0  0
   -1.9775    1.0423    0.5073 N   0  0  0  0  0  0  0  0  0  0  0  0
    4.2584   -1.4973    1.7174 O   0  0  0  0  0  0  0  0  0  0  0  0
    4.4145   -1.1661   -0.6678 O   0  0  0  0  0  0  0  0  0  0  0  0
   -1.2222   -2.2899   -2.6667 H   0  0  0  0  0  0  0  0  0  0  0  0
   -1.5147   -0.6473   -3.2593 H   0  0  0  0  0  0  0  0  0  0  0  0
    0.0646   -1.0875   -2.5803 H   0  0  0  0  0  0  0  0  0  0  0  0
   -5.0338    1.3068    1.9531 H   0  0  0  0  0  0  0  0  0  0  0  0
   -3.7439    2.5195    1.9553 H   0  0  0  0  0  0  0  0  0  0  0  0
   -3.4920    0.9513    2.7490 H   0  0  0  0  0  0  0  0  0  0  0  0
   -2.5679   -1.1448   -1.0462 H   0  0  0  0  0  0  0  0  0  0  0  0
   -0.9874   -1.4251   -0.3374 H   0  0  0  0  0  0  0  0  0  0  0  0
   -3.9225    1.3747   -0.2569 H   0  0  0  0  0  0  0  0  0  0  0  0
   -3.6947   -0.1943    0.5455 H   0  0  0  0  0  0  0  0  0  0  0  0
    0.2286    0.6462    1.8023 H   0  0  0  0  0  0  0  0  0  0  0  0
    2.0425   -0.5335    3.0068 H   0  0  0  0  0  0  0  0  0  0  0  0
    0.0968    2.2598   -0.5972 H   0  0  0  0  0  0  0  0  0  0  0  0
    0.3264    1.2326   -1.9788 H   0  0  0  0  0  0  0  0  0  0  0  0
    2.3874    0.1361   -1.9261 H   0  0  0  0  0  0  0  0  0  0  0  0
    6.0133   -1.2332    0.6483 H   0  0  0  0  0  0  0  0  0  0  0  0
    5.1785   -2.7833    0.3785 H   0  0  0  0  0  0  0  0  0  0  0  0
   -1.9655    1.2153   -1.5702 H   0  0  0  0  0  0  0  0  0  0  0  0
   -1.7560    2.0191    0.7029 H   0  0  0  0  0  0  0  0  0  0  0  0
  1  3  1  0
  2  4  1  0
  3 11  1  0
  4 14  1  0
  5  6  2  0
  5 10  1  0
  6 12  1  0
  7 10  1  0
  7 11  1  0
  8 10  2  0
  8 13  1  0
  9 15  1  0
  9 16  1  0
 11 14  1  0
 12 13  2  0
 12 15  1  0
 13 16  1  0
  1 17  1  0
  1 18  1  0
  1 19  1  0
  2 20  1  0
  2 21  1  0
  2 22  1  0
  3 23  1  0
  3 24  1  0
  4 25  1  0
  4 26  1  0
  5 27  1  0
  6 28  1  0
  7 29  1  0
  7 30  1  0
  8 31  1  0
  9 32  1  0
  9 33  1  0
 11 34  1  0
 14 35  1  0
M  END
