
     RDKit          3D

 36 37  0  0  0  0  0  0  0  0999 V2000
    1.9957    2.0723    0.7260 C   0  0  0  0  0  0  0  0  0  0  0  0
    4.3123    0.3555    0.0032 C   0  0  0  0  0  0  0  0  0  0  0  0
   -3.7164   -1.9633   -1.4524 C   0  0  0  0  0  0  0  0  0  0  0  0
   -3.9393    0.4195    1.8781 C   0  0  0  0  0  0  0  0  0  0  0  0
    1.2364   -0.6719   -1.9013 C   0  0  0  0  0  0  0  0  0  0  0  0
    2.5471    0.0708   -1.6228 C   0  0  0  0  0  0  0  0  0  0  0  0
   -1.1358   -0.8869   -1.0863 C   0  0  0  0  0  0  0  0  0  0  0  0
    1.9592    0.5318    0.7008 C   0  0  0  0  0  0  0  0  0  0  0  0
    0.1851   -0.4644   -0.8382 C   0  0  0  0  0  0  0  0  0  0  0  0
   -2.1321   -0.7844   -0.1067 C   0  0  0  0  0  0  0  0  0  0  0  0
    0.5372    0.0576    0.4178 C   0  0  0  0  0  0  0  0  0  0  0  0
   -0.4652    0.1517    1.3893 C   0  0  0  0  0  0  0  0  0  0  0  0
   -1.7932   -0.2309    1.1352 C   0  0  0  0  0  0  0  0  0  0  0  0
    2.9433   -0.0905   -0.2224 N   0  0  0  0  0  0  0  0  0  0  0  0
   -0.1506    0.6356    2.6357 O   0  0  0  0  0  0  0  0  0  0  0  0
   -3.4201   -1.2159   -0.2795 O   0  0  0  0  0  0  0  0  0  0  0  0
   -2.6407   -0.0645    2.2084 O   0  0  0  0  0  0  0  0  0  0  0  0
    2.9775    2.4470    1.0312 H   0  0  0  0  0  0  0  0  0  0  0  0
    1.2737    2.4784    1.4429 H   0  0  0  0  0  0  0  0  0  0  0  0
    1.7503    2.5061   -0.2488 H   0  0  0  0  0  0  0  0  0  0  0  0
    4.5873    0.2546    1.0582 H   0  0  0  0  0  0  0  0  0  0  0  0
    4.4771    1.3930   -0.3047 H   0  0  0  0  0  0  0  0  0  0  0  0
    5.0104   -0.2732   -0.5609 H   0  0  0  0  0  0  0  0  0  0  0  0
   -3.0851   -2.8559   -1.5269 H   0  0  0  0  0  0  0  0  0  0  0  0
   -3.6320   -1.3379   -2.3472 H   0  0  0  0  0  0  0  0  0  0  0  0
   -4.7568   -2.2977   -1.3808 H   0  0  0  0  0  0  0  0  0  0  0  0
   -4.6242   -0.4163    1.7143 H   0  0  0  0  0  0  0  0  0  0  0  0
   -3.9319    1.1006    1.0208 H   0  0  0  0  0  0  0  0  0  0  0  0
   -4.3108    0.9817    2.7407 H   0  0  0  0  0  0  0  0  0  0  0  0
    0.8479   -0.3517   -2.8757 H   0  0  0  0  0  0  0  0  0  0  0  0
    1.4413   -1.7490   -1.9613 H   0  0  0  0  0  0  0  0  0  0  0  0
    2.4473    1.1294   -1.8913 H   0  0  0  0  0  0  0  0  0  0  0  0
    3.3134   -0.3466   -2.2879 H   0  0  0  0  0  0  0  0  0  0  0  0
   -1.3519   -1.3109   -2.0625 H   0  0  0  0  0  0  0  0  0  0  0  0
    2.2207    0.1714    1.7045 H   0  0  0  0  0  0  0  0  0  0  0  0
   -0.9773    0.5549    3.1507 H   0  0  0  0  0  0  0  0  0  0  0  0
  1  8  1  0
  2 14  1  0
  3 16  1  0
  4 17  1  0
  5  6  1  0
  5  9  1  0
  6 14  1  0
  7  9  2  0
  7 10  1  0
  8 11  1  0
  8 14  1  0
  9 11  1  0
 10 13  2  0
 10 16  1  0
 11 12  2  0
 12 13  1  0
 12 15  1  0
 13 17  1  0
  1 18  1  0
  1 19  1  0
  1 20  1  0
  2 21  1  0
  2 22  1  0
  2 23  1  0
  3 24  1  0
  3 25  1  0
  3 26  1  0
  4 27  1  0
  4 28  1  0
  4 29  1  0
  5 30  1  0
  5 31  1  0
  6 32  1  0
  6 33  1  0
  7 34  1  0
  8 35  1  0
 15 36  1  0
M  END
