
     RDKit          3D

 37 37  0  0  0  0  0  0  0  0999 V2000
    3.9223    0.6912   -1.6282 C   0  0  0  0  0  0  0  0  0  0  0  0
   -2.6569    0.7055   -0.2960 C   0  0  0  0  0  0  0  0  0  0  0  0
   -4.3468   -1.7149    0.6216 C   0  0  0  0  0  0  0  0  0  0  0  0
    2.5186   -3.1934   -0.9482 C   0  0  0  0  0  0  0  0  0  0  0  0
    0.4540    3.7003    0.7310 C   0  0  0  0  0  0  0  0  0  0  0  0
    1.9396    1.5452   -0.3331 C   0  0  0  0  0  0  0  0  0  0  0  0
   -0.9864   -0.2225    1.3875 C   0  0  0  0  0  0  0  0  0  0  0  0
    1.0112   -1.0421    0.0958 C   0  0  0  0  0  0  0  0  0  0  0  0
    2.6579    0.4518   -0.8485 C   0  0  0  0  0  0  0  0  0  0  0  0
   -2.2068   -0.5338    0.4868 C   0  0  0  0  0  0  0  0  0  0  0  0
    0.2904    0.0515    0.6147 C   0  0  0  0  0  0  0  0  0  0  0  0
    2.1885   -0.8525   -0.6312 C   0  0  0  0  0  0  0  0  0  0  0  0
    0.7610    1.3565    0.3951 C   0  0  0  0  0  0  0  0  0  0  0  0
   -3.2870   -1.0399    1.3560 N   0  0  0  0  0  0  0  0  0  0  0  0
    2.9491   -1.8568   -1.1701 O   0  0  0  0  0  0  0  0  0  0  0  0
   -0.0009    2.3670    0.9196 O   0  0  0  0  0  0  0  0  0  0  0  0
    3.8202    0.2995   -2.6454 H   0  0  0  0  0  0  0  0  0  0  0  0
    4.1520    1.7591   -1.7063 H   0  0  0  0  0  0  0  0  0  0  0  0
    4.7701    0.2059   -1.1339 H   0  0  0  0  0  0  0  0  0  0  0  0
   -3.5194    0.4892   -0.9340 H   0  0  0  0  0  0  0  0  0  0  0  0
   -1.8629    1.0635   -0.9588 H   0  0  0  0  0  0  0  0  0  0  0  0
   -2.9316    1.5255    0.3768 H   0  0  0  0  0  0  0  0  0  0  0  0
   -3.9521   -2.5418    0.0227 H   0  0  0  0  0  0  0  0  0  0  0  0
   -4.9002   -1.0319   -0.0289 H   0  0  0  0  0  0  0  0  0  0  0  0
   -5.0612   -2.1411    1.3330 H   0  0  0  0  0  0  0  0  0  0  0  0
    3.2392   -3.8605   -1.4311 H   0  0  0  0  0  0  0  0  0  0  0  0
    1.5405   -3.3742   -1.4060 H   0  0  0  0  0  0  0  0  0  0  0  0
    2.5081   -3.4335    0.1201 H   0  0  0  0  0  0  0  0  0  0  0  0
    1.4295    3.8561    1.2033 H   0  0  0  0  0  0  0  0  0  0  0  0
    0.4802    3.9615   -0.3320 H   0  0  0  0  0  0  0  0  0  0  0  0
   -0.2616    4.3690    1.2191 H   0  0  0  0  0  0  0  0  0  0  0  0
    2.3262    2.5421   -0.5190 H   0  0  0  0  0  0  0  0  0  0  0  0
   -0.7893   -1.0805    2.0468 H   0  0  0  0  0  0  0  0  0  0  0  0
   -1.2150    0.6065    2.0694 H   0  0  0  0  0  0  0  0  0  0  0  0
    0.6224   -2.0391    0.2805 H   0  0  0  0  0  0  0  0  0  0  0  0
   -1.9226   -1.3195   -0.2248 H   0  0  0  0  0  0  0  0  0  0  0  0
   -3.6803   -0.2690    1.8961 H   0  0  0  0  0  0  0  0  0  0  0  0
  1  9  1  0
  2 10  1  0
  3 14  1  0
  4 15  1  0
  5 16  1  0
  6  9  2  0
  6 13  1  0
  7 10  1  0
  7 11  1  0
  8 11  1  0
  8 12  2  0
  9 12  1  0
 10 14  1  0
 11 13  2  0
 12 15  1  0
 13 16  1  0
  1 17  1  0
  1 18  1  0
  1 19  1  0
  2 20  1  0
  2 21  1  0
  2 22  1  0
  3 23  1  0
  3 24  1  0
  3 25  1  0
  4 26  1  0
  4 27  1  0
  4 28  1  0
  5 29  1  0
  5 30  1  0
  5 31  1  0
  6 32  1  0
  7 33  1  0
  7 34  1  0
  8 35  1  0
 10 36  1  0
 14 37  1  0
M  END
