
     RDKit          3D

 39 39  0  0  0  0  0  0  0  0999 V2000
    4.5951   -0.3831    0.9248 C   0  0  0  0  0  0  0  0  0  0  0  0
   -1.9189   -3.2711    0.8339 C   0  0  0  0  0  0  0  0  0  0  0  0
    0.7716    1.8114   -2.4710 C   0  0  0  0  0  0  0  0  0  0  0  0
   -4.1553   -0.4092    0.8102 C   0  0  0  0  0  0  0  0  0  0  0  0
   -2.4363    2.6433   -0.9812 C   0  0  0  0  0  0  0  0  0  0  0  0
    2.2088    0.4262    0.9945 C   0  0  0  0  0  0  0  0  0  0  0  0
    0.0389   -0.8101    1.2959 C   0  0  0  0  0  0  0  0  0  0  0  0
    3.1834   -0.6048    0.3837 C   0  0  0  0  0  0  0  0  0  0  0  0
    0.7590    0.1905    0.6229 C   0  0  0  0  0  0  0  0  0  0  0  0
   -1.2935   -1.0715    0.9699 C   0  0  0  0  0  0  0  0  0  0  0  0
    0.1209    0.9210   -0.3964 C   0  0  0  0  0  0  0  0  0  0  0  0
   -1.9601   -0.2844    0.0256 C   0  0  0  0  0  0  0  0  0  0  0  0
   -1.2461    0.7117   -0.6574 C   0  0  0  0  0  0  0  0  0  0  0  0
    3.2360   -0.5365   -1.0827 N   0  0  0  0  0  0  0  0  0  0  0  0
   -1.9151   -2.0924    1.6416 O   0  0  0  0  0  0  0  0  0  0  0  0
    0.8811    1.8612   -1.0486 O   0  0  0  0  0  0  0  0  0  0  0  0
   -3.2778   -0.4693   -0.3136 O   0  0  0  0  0  0  0  0  0  0  0  0
   -1.9015    1.4716   -1.5987 O   0  0  0  0  0  0  0  0  0  0  0  0
    4.9738    0.6125    0.6676 H   0  0  0  0  0  0  0  0  0  0  0  0
    4.6095   -0.4768    2.0162 H   0  0  0  0  0  0  0  0  0  0  0  0
    5.2923   -1.1265    0.5212 H   0  0  0  0  0  0  0  0  0  0  0  0
   -0.8979   -3.6457    0.6910 H   0  0  0  0  0  0  0  0  0  0  0  0
   -2.4006   -3.1026   -0.1372 H   0  0  0  0  0  0  0  0  0  0  0  0
   -2.4923   -4.0378    1.3650 H   0  0  0  0  0  0  0  0  0  0  0  0
    0.0235    2.5299   -2.8187 H   0  0  0  0  0  0  0  0  0  0  0  0
    1.7377    2.1136   -2.8864 H   0  0  0  0  0  0  0  0  0  0  0  0
    0.5515    0.8051   -2.8460 H   0  0  0  0  0  0  0  0  0  0  0  0
   -3.7988    0.2741    1.5904 H   0  0  0  0  0  0  0  0  0  0  0  0
   -5.1193   -0.0323    0.4552 H   0  0  0  0  0  0  0  0  0  0  0  0
   -4.3232   -1.4104    1.2164 H   0  0  0  0  0  0  0  0  0  0  0  0
   -3.2012    2.3885   -0.2402 H   0  0  0  0  0  0  0  0  0  0  0  0
   -2.9163    3.2441   -1.7610 H   0  0  0  0  0  0  0  0  0  0  0  0
   -1.6493    3.2516   -0.5225 H   0  0  0  0  0  0  0  0  0  0  0  0
    2.5138    1.4453    0.7257 H   0  0  0  0  0  0  0  0  0  0  0  0
    2.2841    0.3892    2.0900 H   0  0  0  0  0  0  0  0  0  0  0  0
    0.5200   -1.4055    2.0684 H   0  0  0  0  0  0  0  0  0  0  0  0
    2.8677   -1.6174    0.6612 H   0  0  0  0  0  0  0  0  0  0  0  0
    3.4321    0.4257   -1.3602 H   0  0  0  0  0  0  0  0  0  0  0  0
    2.3026   -0.7290   -1.4495 H   0  0  0  0  0  0  0  0  0  0  0  0
  1  8  1  0
  2 15  1  0
  3 16  1  0
  4 17  1  0
  5 18  1  0
  6  8  1  0
  6  9  1  0
  7  9  2  0
  7 10  1  0
  8 14  1  0
  9 11  1  0
 10 12  2  0
 10 15  1  0
 11 13  2  0
 11 16  1  0
 12 13  1  0
 12 17  1  0
 13 18  1  0
  1 19  1  0
  1 20  1  0
  1 21  1  0
  2 22  1  0
  2 23  1  0
  2 24  1  0
  3 25  1  0
  3 26  1  0
  3 27  1  0
  4 28  1  0
  4 29  1  0
  4 30  1  0
  5 31  1  0
  5 32  1  0
  5 33  1  0
  6 34  1  0
  6 35  1  0
  7 36  1  0
  8 37  1  0
 14 38  1  0
 14 39  1  0
M  END
