
     RDKit          3D

 27 29  0  0  0  0  0  0  0  0999 V2000
    3.1618    0.2066    1.6331 C   0  0  0  0  0  0  0  0  0  0  0  0
    4.1358    0.0397    0.6483 C   0  0  0  0  0  0  0  0  0  0  0  0
    1.8141    0.0361    1.3165 C   0  0  0  0  0  0  0  0  0  0  0  0
    3.7658   -0.2978   -0.6563 C   0  0  0  0  0  0  0  0  0  0  0  0
   -2.7072    2.0934   -0.0870 C   0  0  0  0  0  0  0  0  0  0  0  0
   -1.8297   -1.9010   -0.8009 C   0  0  0  0  0  0  0  0  0  0  0  0
    1.4448   -0.3001    0.0065 C   0  0  0  0  0  0  0  0  0  0  0  0
    2.4181   -0.4709   -0.9827 C   0  0  0  0  0  0  0  0  0  0  0  0
   -2.1670    0.7921    0.0902 C   0  0  0  0  0  0  0  0  0  0  0  0
   -1.7829    2.9270   -0.6576 C   0  0  0  0  0  0  0  0  0  0  0  0
   -2.7441   -1.4026    0.2921 C   0  0  0  0  0  0  0  0  0  0  0  0
    0.0038   -0.4838   -0.2856 C   0  0  0  0  0  0  0  0  0  0  0  0
   -0.8535    0.6857   -0.3233 C   0  0  0  0  0  0  0  0  0  0  0  0
    2.0193   -0.8470   -2.6196 Cl  0  0  0  0  0  0  0  0  0  0  0  0
   -2.0036    4.5820   -1.0573 Cl  0  0  0  0  0  0  0  0  0  0  0  0
   -0.4194   -1.6941   -0.4474 N   0  0  0  0  0  0  0  0  0  0  0  0
   -2.9362   -0.1977    0.7177 N   0  0  0  0  0  0  0  0  0  0  0  0
   -3.4693   -2.3692    0.8812 O   0  0  0  0  0  0  0  0  0  0  0  0
   -0.2944    2.1826   -0.9579 S   0  0  0  0  0  0  0  0  0  0  0  0
    3.4540    0.4646    2.6487 H   0  0  0  0  0  0  0  0  0  0  0  0
    5.1869    0.1713    0.8963 H   0  0  0  0  0  0  0  0  0  0  0  0
    1.0591    0.1546    2.0904 H   0  0  0  0  0  0  0  0  0  0  0  0
    4.5349   -0.4221   -1.4151 H   0  0  0  0  0  0  0  0  0  0  0  0
   -3.7088    2.3928    0.1920 H   0  0  0  0  0  0  0  0  0  0  0  0
   -1.9922   -2.9753   -0.9404 H   0  0  0  0  0  0  0  0  0  0  0  0
   -2.0819   -1.4198   -1.7530 H   0  0  0  0  0  0  0  0  0  0  0  0
   -4.0083   -1.9474    1.5709 H   0  0  0  0  0  0  0  0  0  0  0  0
  1  2  2  0
  1  3  1  0
  2  4  1  0
  3  7  2  0
  4  8  2  0
  5  9  1  0
  5 10  2  0
  6 11  1  0
  6 16  1  0
  7  8  1  0
  7 12  1  0
  8 14  1  0
  9 13  2  0
  9 17  1  0
 10 15  1  0
 10 19  1  0
 11 17  2  0
 11 18  1  0
 12 13  1  0
 12 16  2  0
 13 19  1  0
  1 20  1  0
  2 21  1  0
  3 22  1  0
  4 23  1  0
  5 24  1  0
  6 25  1  0
  6 26  1  0
 18 27  1  0
M  END
