
     RDKit          3D

 33 35  0  0  0  0  0  0  0  0999 V2000
   -4.0610    0.0636   -1.1484 C   0  0  0  0  0  0  0  0  0  0  0  0
   -4.0309   -0.3977    0.3090 C   0  0  0  0  0  0  0  0  0  0  0  0
   -2.7083    0.5769   -1.6417 C   0  0  0  0  0  0  0  0  0  0  0  0
    1.1052   -1.3789    0.3221 C   0  0  0  0  0  0  0  0  0  0  0  0
    2.3896   -1.6698   -0.1387 C   0  0  0  0  0  0  0  0  0  0  0  0
    5.5718   -0.0783   -0.4699 C   0  0  0  0  0  0  0  0  0  0  0  0
    5.3050    1.1705    0.0517 C   0  0  0  0  0  0  0  0  0  0  0  0
   -2.9337    0.2956    1.1061 C   0  0  0  0  0  0  0  0  0  0  0  0
   -1.5421   -0.1037   -0.9326 C   0  0  0  0  0  0  0  0  0  0  0  0
    1.8513    0.8473    0.9055 C   0  0  0  0  0  0  0  0  0  0  0  0
    0.8359   -0.1083    0.8273 C   0  0  0  0  0  0  0  0  0  0  0  0
    3.4048   -0.7218   -0.0914 C   0  0  0  0  0  0  0  0  0  0  0  0
    3.1287    0.5637    0.4458 C   0  0  0  0  0  0  0  0  0  0  0  0
   -0.5048    0.2313    1.3502 C   0  0  0  0  0  0  0  0  0  0  0  0
    4.6289   -1.0419   -0.5524 N   0  0  0  0  0  0  0  0  0  0  0  0
    4.0830    1.5121    0.5139 N   0  0  0  0  0  0  0  0  0  0  0  0
   -1.6136    0.0647    0.5227 N   0  0  0  0  0  0  0  0  0  0  0  0
   -0.5746    0.6400    2.5065 O   0  0  0  0  0  0  0  0  0  0  0  0
   -4.8070    0.8576   -1.2733 H   0  0  0  0  0  0  0  0  0  0  0  0
   -4.3952   -0.7710   -1.7765 H   0  0  0  0  0  0  0  0  0  0  0  0
   -5.0083   -0.2264    0.7736 H   0  0  0  0  0  0  0  0  0  0  0  0
   -3.8569   -1.4813    0.3331 H   0  0  0  0  0  0  0  0  0  0  0  0
   -2.6306    0.4366   -2.7256 H   0  0  0  0  0  0  0  0  0  0  0  0
   -2.6523    1.6581   -1.4600 H   0  0  0  0  0  0  0  0  0  0  0  0
    0.3330   -2.1433    0.2993 H   0  0  0  0  0  0  0  0  0  0  0  0
    2.6100   -2.6578   -0.5363 H   0  0  0  0  0  0  0  0  0  0  0  0
    6.5564   -0.3420   -0.8383 H   0  0  0  0  0  0  0  0  0  0  0  0
    6.0691    1.9367    0.1138 H   0  0  0  0  0  0  0  0  0  0  0  0
   -2.9417   -0.0616    2.1421 H   0  0  0  0  0  0  0  0  0  0  0  0
   -3.0997    1.3795    1.1315 H   0  0  0  0  0  0  0  0  0  0  0  0
   -0.6007    0.3036   -1.3137 H   0  0  0  0  0  0  0  0  0  0  0  0
   -1.5556   -1.1804   -1.1369 H   0  0  0  0  0  0  0  0  0  0  0  0
    1.6442    1.8265    1.3311 H   0  0  0  0  0  0  0  0  0  0  0  0
  1  2  1  0
  1  3  1  0
  2  8  1  0
  3  9  1  0
  4  5  2  0
  4 11  1  0
  5 12  1  0
  6  7  1  0
  6 15  2  0
  7 16  2  0
  8 17  1  0
  9 17  1  0
 10 11  2  0
 10 13  1  0
 11 14  1  0
 12 13  2  0
 12 15  1  0
 13 16  1  0
 14 17  1  0
 14 18  2  0
  1 19  1  0
  1 20  1  0
  2 21  1  0
  2 22  1  0
  3 23  1  0
  3 24  1  0
  4 25  1  0
  5 26  1  0
  6 27  1  0
  7 28  1  0
  8 29  1  0
  8 30  1  0
  9 31  1  0
  9 32  1  0
 10 33  1  0
M  END
