
     RDKit          3D

 31 33  0  0  0  0  0  0  0  0999 V2000
    3.2570   -2.0626    1.0132 C   0  0  0  0  0  0  0  0  0  0  0  0
    4.1769   -1.1647    0.4760 C   0  0  0  0  0  0  0  0  0  0  0  0
    1.8930   -1.8853    0.7793 C   0  0  0  0  0  0  0  0  0  0  0  0
    3.7351   -0.0954   -0.3058 C   0  0  0  0  0  0  0  0  0  0  0  0
   -1.8145    3.0612    0.9984 C   0  0  0  0  0  0  0  0  0  0  0  0
   -2.2299    2.4390   -0.1805 C   0  0  0  0  0  0  0  0  0  0  0  0
   -0.2721    1.2467    1.3984 C   0  0  0  0  0  0  0  0  0  0  0  0
   -0.8395    2.4585    1.7841 C   0  0  0  0  0  0  0  0  0  0  0  0
    1.4410   -0.7992    0.0133 C   0  0  0  0  0  0  0  0  0  0  0  0
   -0.6825    0.6268    0.2049 C   0  0  0  0  0  0  0  0  0  0  0  0
    2.3690    0.0891   -0.5464 C   0  0  0  0  0  0  0  0  0  0  0  0
   -1.6858    1.2130   -0.5893 C   0  0  0  0  0  0  0  0  0  0  0  0
   -0.0355   -0.6671   -0.1721 C   0  0  0  0  0  0  0  0  0  0  0  0
   -2.3642   -0.5764   -1.8964 C   0  0  0  0  0  0  0  0  0  0  0  0
   -2.1011   -1.6590   -0.8417 C   0  0  0  0  0  0  0  0  0  0  0  0
   -0.3282    3.2133    3.2426 Cl  0  0  0  0  0  0  0  0  0  0  0  0
    1.9175    1.3980   -1.5781 Cl  0  0  0  0  0  0  0  0  0  0  0  0
   -2.1682    0.6968   -1.8029 N   0  0  0  0  0  0  0  0  0  0  0  0
   -0.6579   -1.7164   -0.6018 N   0  0  0  0  0  0  0  0  0  0  0  0
   -2.8334   -1.0277   -3.0725 O   0  0  0  0  0  0  0  0  0  0  0  0
   -2.8682   -1.5136    0.3349 O   0  0  0  0  0  0  0  0  0  0  0  0
    3.6016   -2.9049    1.6091 H   0  0  0  0  0  0  0  0  0  0  0  0
    5.2410   -1.3044    0.6535 H   0  0  0  0  0  0  0  0  0  0  0  0
    1.1818   -2.5964    1.1946 H   0  0  0  0  0  0  0  0  0  0  0  0
    4.4654    0.5861   -0.7366 H   0  0  0  0  0  0  0  0  0  0  0  0
   -2.2577    4.0090    1.2923 H   0  0  0  0  0  0  0  0  0  0  0  0
   -2.9933    2.9119   -0.7950 H   0  0  0  0  0  0  0  0  0  0  0  0
    0.4813    0.7897    2.0342 H   0  0  0  0  0  0  0  0  0  0  0  0
   -2.3937   -2.6184   -1.2827 H   0  0  0  0  0  0  0  0  0  0  0  0
   -2.9360   -0.2523   -3.6489 H   0  0  0  0  0  0  0  0  0  0  0  0
   -2.2987   -1.8951    1.0221 H   0  0  0  0  0  0  0  0  0  0  0  0
  1  2  2  0
  1  3  1  0
  2  4  1  0
  3  9  2  0
  4 11  2  0
  5  6  2  0
  5  8  1  0
  6 12  1  0
  7  8  2  0
  7 10  1  0
  8 16  1  0
  9 11  1  0
  9 13  1  0
 10 12  2  0
 10 13  1  0
 11 17  1  0
 12 18  1  0
 13 19  2  0
 14 15  1  0
 14 18  2  0
 14 20  1  0
 15 19  1  0
 15 21  1  0
  1 22  1  0
  2 23  1  0
  3 24  1  0
  4 25  1  0
  5 26  1  0
  6 27  1  0
  7 28  1  0
 15 29  1  0
 20 30  1  0
 21 31  1  0
M  END
