
     RDKit          3D

 35 37  0  0  0  0  0  0  0  0999 V2000
    4.5711   -0.3278   -0.1475 C   0  0  0  0  0  0  0  0  0  0  0  0
    4.4315    1.0748    0.4322 C   0  0  0  0  0  0  0  0  0  0  0  0
   -4.9805    0.5841    0.4885 C   0  0  0  0  0  0  0  0  0  0  0  0
   -4.7593    0.0033   -0.7636 C   0  0  0  0  0  0  0  0  0  0  0  0
   -3.9495    0.7030    1.4181 C   0  0  0  0  0  0  0  0  0  0  0  0
    0.1290   -1.0425   -0.2035 C   0  0  0  0  0  0  0  0  0  0  0  0
    3.1676   -0.7232   -0.5879 C   0  0  0  0  0  0  0  0  0  0  0  0
    2.9805    1.4554    0.1906 C   0  0  0  0  0  0  0  0  0  0  0  0
    0.9328    0.2620   -0.3375 C   0  0  0  0  0  0  0  0  0  0  0  0
   -1.6474   -1.3407   -2.0356 C   0  0  0  0  0  0  0  0  0  0  0  0
   -1.2514   -0.9203   -0.7798 C   0  0  0  0  0  0  0  0  0  0  0  0
   -3.4671   -0.4543   -1.0511 C   0  0  0  0  0  0  0  0  0  0  0  0
   -2.6657    0.2391    1.1108 C   0  0  0  0  0  0  0  0  0  0  0  0
   -2.4081   -0.3533   -0.1452 C   0  0  0  0  0  0  0  0  0  0  0  0
   -2.9767   -1.0573   -2.1853 N   0  0  0  0  0  0  0  0  0  0  0  0
    2.3006    0.1586    0.1952 N   0  0  0  0  0  0  0  0  0  0  0  0
   -1.6565    0.3636    2.0327 O   0  0  0  0  0  0  0  0  0  0  0  0
    5.2701   -0.3467   -0.9900 H   0  0  0  0  0  0  0  0  0  0  0  0
    4.9507   -1.0125    0.6198 H   0  0  0  0  0  0  0  0  0  0  0  0
    4.6515    1.0544    1.5063 H   0  0  0  0  0  0  0  0  0  0  0  0
    5.1215    1.7822   -0.0382 H   0  0  0  0  0  0  0  0  0  0  0  0
   -5.9744    0.9481    0.7391 H   0  0  0  0  0  0  0  0  0  0  0  0
   -5.5659   -0.0874   -1.4840 H   0  0  0  0  0  0  0  0  0  0  0  0
   -4.1597    1.1605    2.3800 H   0  0  0  0  0  0  0  0  0  0  0  0
    0.0652   -1.3392    0.8503 H   0  0  0  0  0  0  0  0  0  0  0  0
    0.6467   -1.8595   -0.7214 H   0  0  0  0  0  0  0  0  0  0  0  0
    2.9774   -1.7818   -0.3863 H   0  0  0  0  0  0  0  0  0  0  0  0
    3.0574   -0.5476   -1.6657 H   0  0  0  0  0  0  0  0  0  0  0  0
    2.6046    2.1224    0.9728 H   0  0  0  0  0  0  0  0  0  0  0  0
    2.8841    1.9611   -0.7788 H   0  0  0  0  0  0  0  0  0  0  0  0
    0.9517    0.5811   -1.3886 H   0  0  0  0  0  0  0  0  0  0  0  0
    0.4028    1.0499    0.2133 H   0  0  0  0  0  0  0  0  0  0  0  0
   -1.0927   -1.8199   -2.8313 H   0  0  0  0  0  0  0  0  0  0  0  0
   -3.5260   -1.2609   -3.0082 H   0  0  0  0  0  0  0  0  0  0  0  0
   -2.0159    0.7714    2.8358 H   0  0  0  0  0  0  0  0  0  0  0  0
  1  2  1  0
  1  7  1  0
  2  8  1  0
  3  4  2  0
  3  5  1  0
  4 12  1  0
  5 13  2  0
  6  9  1  0
  6 11  1  0
  7 16  1  0
  8 16  1  0
  9 16  1  0
 10 11  2  0
 10 15  1  0
 11 14  1  0
 12 14  2  0
 12 15  1  0
 13 14  1  0
 13 17  1  0
  1 18  1  0
  1 19  1  0
  2 20  1  0
  2 21  1  0
  3 22  1  0
  4 23  1  0
  5 24  1  0
  6 25  1  0
  6 26  1  0
  7 27  1  0
  7 28  1  0
  8 29  1  0
  8 30  1  0
  9 31  1  0
  9 32  1  0
 10 33  1  0
 15 34  1  0
 17 35  1  0
M  END
