
     RDKit          3D

 37 37  0  0  0  0  0  0  0  0999 V2000
    3.6103   -1.8339   -0.9558 C   0  0  0  0  0  0  0  0  0  0  0  0
   -3.9833    0.8567    2.2548 C   0  0  0  0  0  0  0  0  0  0  0  0
    0.3683    2.5662    0.7335 C   0  0  0  0  0  0  0  0  0  0  0  0
    0.2751   -0.6108   -3.2743 C   0  0  0  0  0  0  0  0  0  0  0  0
    3.7619   -0.9128    0.2433 C   0  0  0  0  0  0  0  0  0  0  0  0
   -2.8458    1.3579    1.7559 C   0  0  0  0  0  0  0  0  0  0  0  0
    2.5100   -0.1957    0.5203 C   0  0  0  0  0  0  0  0  0  0  0  0
    1.4782    0.3795    0.7376 C   0  0  0  0  0  0  0  0  0  0  0  0
   -2.3600    1.1053    0.3501 C   0  0  0  0  0  0  0  0  0  0  0  0
    0.1834    1.0633    0.9839 C   0  0  0  0  0  0  0  0  0  0  0  0
   -1.0933   -1.0340    0.6014 C   0  0  0  0  0  0  0  0  0  0  0  0
   -0.6599    0.4626   -1.3126 C   0  0  0  0  0  0  0  0  0  0  0  0
   -0.3914   -1.9557   -1.3746 C   0  0  0  0  0  0  0  0  0  0  0  0
   -0.9780    0.4016    0.1773 C   0  0  0  0  0  0  0  0  0  0  0  0
   -0.8490   -2.0788   -0.0950 N   0  0  0  0  0  0  0  0  0  0  0  0
   -0.1729   -0.6893   -1.8965 N   0  0  0  0  0  0  0  0  0  0  0  0
   -1.4624   -1.2529    1.8691 O   0  0  0  0  0  0  0  0  0  0  0  0
   -0.8200    1.5017   -1.9593 O   0  0  0  0  0  0  0  0  0  0  0  0
   -0.2012   -2.9622   -2.0530 O   0  0  0  0  0  0  0  0  0  0  0  0
    3.3378   -1.2717   -1.8556 H   0  0  0  0  0  0  0  0  0  0  0  0
    2.8316   -2.5846   -0.7819 H   0  0  0  0  0  0  0  0  0  0  0  0
    4.5502   -2.3586   -1.1540 H   0  0  0  0  0  0  0  0  0  0  0  0
   -4.2894    1.0823    3.2722 H   0  0  0  0  0  0  0  0  0  0  0  0
   -4.6323    0.2111    1.6711 H   0  0  0  0  0  0  0  0  0  0  0  0
   -0.5449    3.1315    0.9367 H   0  0  0  0  0  0  0  0  0  0  0  0
    0.6826    2.7772   -0.2939 H   0  0  0  0  0  0  0  0  0  0  0  0
    1.1487    2.9686    1.3909 H   0  0  0  0  0  0  0  0  0  0  0  0
   -0.5910   -0.7417   -3.9311 H   0  0  0  0  0  0  0  0  0  0  0  0
    1.0070   -1.3957   -3.4885 H   0  0  0  0  0  0  0  0  0  0  0  0
    0.7341    0.3613   -3.4795 H   0  0  0  0  0  0  0  0  0  0  0  0
    4.5667   -0.1943    0.0518 H   0  0  0  0  0  0  0  0  0  0  0  0
    4.0547   -1.5009    1.1201 H   0  0  0  0  0  0  0  0  0  0  0  0
   -2.2469    2.0086    2.3898 H   0  0  0  0  0  0  0  0  0  0  0  0
   -3.1169    0.5202   -0.1932 H   0  0  0  0  0  0  0  0  0  0  0  0
   -2.3503    2.0845   -0.1468 H   0  0  0  0  0  0  0  0  0  0  0  0
   -0.0284    0.9488    2.0560 H   0  0  0  0  0  0  0  0  0  0  0  0
   -1.4836   -2.2151    2.0155 H   0  0  0  0  0  0  0  0  0  0  0  0
  1  5  1  0
  2  6  2  3
  3 10  1  0
  4 16  1  0
  5  7  1  0
  6  9  1  0
  7  8  3  0
  8 10  1  0
  9 14  1  0
 10 14  1  0
 11 14  1  0
 11 15  2  0
 11 17  1  0
 12 14  1  0
 12 16  1  0
 12 18  2  0
 13 15  1  0
 13 16  1  0
 13 19  2  0
  1 20  1  0
  1 21  1  0
  1 22  1  0
  2 23  1  0
  2 24  1  0
  3 25  1  0
  3 26  1  0
  3 27  1  0
  4 28  1  0
  4 29  1  0
  4 30  1  0
  5 31  1  0
  5 32  1  0
  6 33  1  0
  9 34  1  0
  9 35  1  0
 10 36  1  0
 17 37  1  0
M  END
