
     RDKit          3D

 34 36  0  0  0  0  0  0  0  0999 V2000
   -2.2516    2.5534   -0.4213 C   0  0  0  0  0  0  0  0  0  0  0  0
    4.2481    0.5066   -0.6461 C   0  0  0  0  0  0  0  0  0  0  0  0
    3.6019   -0.6493   -1.0754 C   0  0  0  0  0  0  0  0  0  0  0  0
    3.5812    1.4028    0.1830 C   0  0  0  0  0  0  0  0  0  0  0  0
    2.2871   -0.9105   -0.6785 C   0  0  0  0  0  0  0  0  0  0  0  0
    2.2678    1.1421    0.5790 C   0  0  0  0  0  0  0  0  0  0  0  0
   -1.6141   -1.7816    1.4642 C   0  0  0  0  0  0  0  0  0  0  0  0
   -2.6749   -0.9396    0.7418 C   0  0  0  0  0  0  0  0  0  0  0  0
   -1.0887   -1.7243   -0.8433 C   0  0  0  0  0  0  0  0  0  0  0  0
    1.5972   -0.0183    0.1536 C   0  0  0  0  0  0  0  0  0  0  0  0
   -0.3969   -1.6856    0.5223 C   0  0  0  0  0  0  0  0  0  0  0  0
   -1.9551   -0.5007   -0.5472 C   0  0  0  0  0  0  0  0  0  0  0  0
    0.1636   -0.2353    0.6099 C   0  0  0  0  0  0  0  0  0  0  0  0
   -0.8662    0.5668   -0.2569 C   0  0  0  0  0  0  0  0  0  0  0  0
   -1.3457    1.7788    0.4174 N   0  0  0  0  0  0  0  0  0  0  0  0
   -2.5318    3.4722    0.1037 H   0  0  0  0  0  0  0  0  0  0  0  0
   -1.7801    2.8396   -1.3670 H   0  0  0  0  0  0  0  0  0  0  0  0
   -3.1764    2.0074   -0.6297 H   0  0  0  0  0  0  0  0  0  0  0  0
    5.2706    0.7062   -0.9549 H   0  0  0  0  0  0  0  0  0  0  0  0
    4.1216   -1.3529   -1.7208 H   0  0  0  0  0  0  0  0  0  0  0  0
    4.0828    2.3040    0.5253 H   0  0  0  0  0  0  0  0  0  0  0  0
    1.8212   -1.8247   -1.0346 H   0  0  0  0  0  0  0  0  0  0  0  0
    1.7693    1.8523    1.2353 H   0  0  0  0  0  0  0  0  0  0  0  0
   -1.4048   -1.4080    2.4714 H   0  0  0  0  0  0  0  0  0  0  0  0
   -1.9542   -2.8199    1.5531 H   0  0  0  0  0  0  0  0  0  0  0  0
   -3.5451   -1.5623    0.5041 H   0  0  0  0  0  0  0  0  0  0  0  0
   -3.0218   -0.1007    1.3518 H   0  0  0  0  0  0  0  0  0  0  0  0
   -1.6731   -2.6370   -1.0037 H   0  0  0  0  0  0  0  0  0  0  0  0
   -0.4150   -1.5759   -1.6921 H   0  0  0  0  0  0  0  0  0  0  0  0
    0.3347   -2.4757    0.7052 H   0  0  0  0  0  0  0  0  0  0  0  0
   -2.6384   -0.2241   -1.3535 H   0  0  0  0  0  0  0  0  0  0  0  0
    0.1226    0.0789    1.6629 H   0  0  0  0  0  0  0  0  0  0  0  0
   -0.3949    0.8545   -1.2079 H   0  0  0  0  0  0  0  0  0  0  0  0
   -0.5410    2.3609    0.6487 H   0  0  0  0  0  0  0  0  0  0  0  0
  1 15  1  0
  2  3  2  0
  2  4  1  0
  3  5  1  0
  4  6  2  0
  5 10  2  0
  6 10  1  0
  7  8  1  0
  7 11  1  0
  8 12  1  0
  9 11  1  0
  9 12  1  0
 10 13  1  0
 11 13  1  0
 12 14  1  0
 13 14  1  0
 14 15  1  0
  1 16  1  0
  1 17  1  0
  1 18  1  0
  2 19  1  0
  3 20  1  0
  4 21  1  0
  5 22  1  0
  6 23  1  0
  7 24  1  0
  7 25  1  0
  8 26  1  0
  8 27  1  0
  9 28  1  0
  9 29  1  0
 11 30  1  0
 12 31  1  0
 13 32  1  0
 14 33  1  0
 15 34  1  0
M  END
