
     RDKit          3D

 36 37  0  0  0  0  0  0  0  0999 V2000
    3.8744   -1.2935   -0.0960 C   0  0  0  0  0  0  0  0  0  0  0  0
    3.6049    0.1769    0.1626 C   0  0  0  0  0  0  0  0  0  0  0  0
   -1.5216   -3.0387   -1.7328 C   0  0  0  0  0  0  0  0  0  0  0  0
   -0.6779   -2.1523   -2.3904 C   0  0  0  0  0  0  0  0  0  0  0  0
   -1.9081   -2.7733   -0.4246 C   0  0  0  0  0  0  0  0  0  0  0  0
   -0.2333   -0.9952   -1.7435 C   0  0  0  0  0  0  0  0  0  0  0  0
   -1.4623   -1.6154    0.2222 C   0  0  0  0  0  0  0  0  0  0  0  0
   -0.0828    1.8340   -0.6635 C   0  0  0  0  0  0  0  0  0  0  0  0
   -0.9389    1.0349    1.5175 C   0  0  0  0  0  0  0  0  0  0  0  0
   -1.4840    2.3487   -0.9856 C   0  0  0  0  0  0  0  0  0  0  0  0
   -2.3134    1.5889    1.1479 C   0  0  0  0  0  0  0  0  0  0  0  0
   -0.6336   -0.6838   -0.4286 C   0  0  0  0  0  0  0  0  0  0  0  0
    1.3162    0.2909    0.7867 C   0  0  0  0  0  0  0  0  0  0  0  0
   -0.1092    0.5908    0.2750 C   0  0  0  0  0  0  0  0  0  0  0  0
   -2.1950    2.7212    0.2336 N   0  0  0  0  0  0  0  0  0  0  0  0
    1.5750   -0.1314    1.9087 O   0  0  0  0  0  0  0  0  0  0  0  0
    2.2511    0.4973   -0.1877 O   0  0  0  0  0  0  0  0  0  0  0  0
    3.2373   -1.9262    0.5301 H   0  0  0  0  0  0  0  0  0  0  0  0
    3.6499   -1.5480   -1.1371 H   0  0  0  0  0  0  0  0  0  0  0  0
    4.9202   -1.5384    0.1099 H   0  0  0  0  0  0  0  0  0  0  0  0
    4.2528    0.7872   -0.4752 H   0  0  0  0  0  0  0  0  0  0  0  0
    3.8256    0.4509    1.2005 H   0  0  0  0  0  0  0  0  0  0  0  0
   -1.8648   -3.9405   -2.2321 H   0  0  0  0  0  0  0  0  0  0  0  0
   -0.3542   -2.3633   -3.4065 H   0  0  0  0  0  0  0  0  0  0  0  0
   -2.5521   -3.4727    0.1029 H   0  0  0  0  0  0  0  0  0  0  0  0
    0.4522   -0.3520   -2.2899 H   0  0  0  0  0  0  0  0  0  0  0  0
   -1.7773   -1.4760    1.2523 H   0  0  0  0  0  0  0  0  0  0  0  0
    0.4842    2.6415   -0.1764 H   0  0  0  0  0  0  0  0  0  0  0  0
    0.4490    1.6451   -1.6018 H   0  0  0  0  0  0  0  0  0  0  0  0
   -0.3868    1.8220    2.0538 H   0  0  0  0  0  0  0  0  0  0  0  0
   -1.0490    0.2278    2.2506 H   0  0  0  0  0  0  0  0  0  0  0  0
   -1.3978    3.2362   -1.6224 H   0  0  0  0  0  0  0  0  0  0  0  0
   -2.0567    1.6063   -1.5535 H   0  0  0  0  0  0  0  0  0  0  0  0
   -2.8146    1.9300    2.0606 H   0  0  0  0  0  0  0  0  0  0  0  0
   -2.9518    0.8136    0.7103 H   0  0  0  0  0  0  0  0  0  0  0  0
   -3.1276    3.0566   -0.0089 H   0  0  0  0  0  0  0  0  0  0  0  0
  1  2  1  0
  2 17  1  0
  3  4  2  0
  3  5  1  0
  4  6  1  0
  5  7  2  0
  6 12  2  0
  7 12  1  0
  8 10  1  0
  8 14  1  0
  9 11  1  0
  9 14  1  0
 10 15  1  0
 11 15  1  0
 12 14  1  0
 13 14  1  0
 13 16  2  0
 13 17  1  0
  1 18  1  0
  1 19  1  0
  1 20  1  0
  2 21  1  0
  2 22  1  0
  3 23  1  0
  4 24  1  0
  5 25  1  0
  6 26  1  0
  7 27  1  0
  8 28  1  0
  8 29  1  0
  9 30  1  0
  9 31  1  0
 10 32  1  0
 10 33  1  0
 11 34  1  0
 11 35  1  0
 15 36  1  0
M  END
