
     RDKit          3D

 37 38  0  0  0  0  0  0  0  0999 V2000
    0.5106    3.7235    1.2320 C   0  0  0  0  0  0  0  0  0  0  0  0
    0.0681    2.5170    0.4139 C   0  0  0  0  0  0  0  0  0  0  0  0
    3.4741   -3.1190    0.1106 C   0  0  0  0  0  0  0  0  0  0  0  0
    3.4768   -2.1750    1.1326 C   0  0  0  0  0  0  0  0  0  0  0  0
    2.5573   -3.0046   -0.9294 C   0  0  0  0  0  0  0  0  0  0  0  0
    2.5597   -1.1188    1.1167 C   0  0  0  0  0  0  0  0  0  0  0  0
    1.6400   -1.9485   -0.9427 C   0  0  0  0  0  0  0  0  0  0  0  0
   -1.7237   -0.2553    0.8867 C   0  0  0  0  0  0  0  0  0  0  0  0
   -1.2921    0.3706   -1.5564 C   0  0  0  0  0  0  0  0  0  0  0  0
   -3.0994    0.2573    0.4643 C   0  0  0  0  0  0  0  0  0  0  0  0
   -2.6594   -0.2269   -1.8997 C   0  0  0  0  0  0  0  0  0  0  0  0
    1.6219   -0.9885    0.0828 C   0  0  0  0  0  0  0  0  0  0  0  0
   -0.7379   -0.3037   -0.2981 C   0  0  0  0  0  0  0  0  0  0  0  0
    1.0694    1.3713    0.4854 C   0  0  0  0  0  0  0  0  0  0  0  0
   -3.5722   -0.3749   -0.7630 N   0  0  0  0  0  0  0  0  0  0  0  0
    0.6566    0.0906    0.0695 N   0  0  0  0  0  0  0  0  0  0  0  0
    2.2269    1.6348    0.8282 O   0  0  0  0  0  0  0  0  0  0  0  0
    1.4574    4.1296    0.8609 H   0  0  0  0  0  0  0  0  0  0  0  0
    0.6483    3.4535    2.2842 H   0  0  0  0  0  0  0  0  0  0  0  0
   -0.2418    4.5164    1.1761 H   0  0  0  0  0  0  0  0  0  0  0  0
   -0.0105    2.8278   -0.6323 H   0  0  0  0  0  0  0  0  0  0  0  0
   -0.9123    2.2166    0.7748 H   0  0  0  0  0  0  0  0  0  0  0  0
    4.1910   -3.9356    0.1211 H   0  0  0  0  0  0  0  0  0  0  0  0
    4.1931   -2.2534    1.9465 H   0  0  0  0  0  0  0  0  0  0  0  0
    2.5624   -3.7293   -1.7393 H   0  0  0  0  0  0  0  0  0  0  0  0
    2.5811   -0.4135    1.9437 H   0  0  0  0  0  0  0  0  0  0  0  0
    0.9722   -1.8688   -1.7957 H   0  0  0  0  0  0  0  0  0  0  0  0
   -1.8272   -1.2707    1.2940 H   0  0  0  0  0  0  0  0  0  0  0  0
   -1.3446    0.3448    1.7205 H   0  0  0  0  0  0  0  0  0  0  0  0
   -0.6048    0.2308   -2.3990 H   0  0  0  0  0  0  0  0  0  0  0  0
   -1.4109    1.4482   -1.4276 H   0  0  0  0  0  0  0  0  0  0  0  0
   -3.0830    1.3456    0.3328 H   0  0  0  0  0  0  0  0  0  0  0  0
   -3.8205    0.0629    1.2663 H   0  0  0  0  0  0  0  0  0  0  0  0
   -2.5151   -1.2132   -2.3578 H   0  0  0  0  0  0  0  0  0  0  0  0
   -3.1427    0.3958   -2.6609 H   0  0  0  0  0  0  0  0  0  0  0  0
   -0.7154   -1.3724   -0.5476 H   0  0  0  0  0  0  0  0  0  0  0  0
   -3.7535   -1.3652   -0.5940 H   0  0  0  0  0  0  0  0  0  0  0  0
  1  2  1  0
  2 14  1  0
  3  4  2  0
  3  5  1  0
  4  6  1  0
  5  7  2  0
  6 12  2  0
  7 12  1  0
  8 10  1  0
  8 13  1  0
  9 11  1  0
  9 13  1  0
 10 15  1  0
 11 15  1  0
 12 16  1  0
 13 16  1  0
 14 16  1  0
 14 17  2  0
  1 18  1  0
  1 19  1  0
  1 20  1  0
  2 21  1  0
  2 22  1  0
  3 23  1  0
  4 24  1  0
  5 25  1  0
  6 26  1  0
  7 27  1  0
  8 28  1  0
  8 29  1  0
  9 30  1  0
  9 31  1  0
 10 32  1  0
 10 33  1  0
 11 34  1  0
 11 35  1  0
 13 36  1  0
 15 37  1  0
M  END
