
     RDKit          3D

 39 39  0  0  0  0  0  0  0  0999 V2000
    5.4892    1.3808   -0.8108 C   0  0  0  0  0  0  0  0  0  0  0  0
    4.8221   -0.6243   -2.1176 C   0  0  0  0  0  0  0  0  0  0  0  0
   -1.5527   -3.5548   -0.6604 C   0  0  0  0  0  0  0  0  0  0  0  0
    0.2704    3.2827    1.4553 C   0  0  0  0  0  0  0  0  0  0  0  0
   -3.5346    0.0760    0.1369 C   0  0  0  0  0  0  0  0  0  0  0  0
   -4.1895   -0.3939    1.4400 C   0  0  0  0  0  0  0  0  0  0  0  0
   -1.2698    1.1014    0.5398 C   0  0  0  0  0  0  0  0  0  0  0  0
    0.0221   -1.3112    0.0313 C   0  0  0  0  0  0  0  0  0  0  0  0
    3.0669    0.7774   -0.8762 C   0  0  0  0  0  0  0  0  0  0  0  0
    4.5185    0.5503   -1.2291 C   0  0  0  0  0  0  0  0  0  0  0  0
   -2.0248   -0.0362    0.1969 C   0  0  0  0  0  0  0  0  0  0  0  0
   -1.3711   -1.2541   -0.0501 C   0  0  0  0  0  0  0  0  0  0  0  0
    0.1249    1.0453    0.6289 C   0  0  0  0  0  0  0  0  0  0  0  0
    0.7758   -0.1701    0.3531 C   0  0  0  0  0  0  0  0  0  0  0  0
   -5.6443   -0.2428    1.3840 N   0  0  0  0  0  0  0  0  0  0  0  0
   -2.1814   -2.3162   -0.3542 O   0  0  0  0  0  0  0  0  0  0  0  0
    0.9144    2.1121    0.9708 O   0  0  0  0  0  0  0  0  0  0  0  0
    2.5588   -0.3829    0.4348 S   0  0  0  0  0  0  0  0  0  0  0  0
    6.5294    1.2223   -1.0781 H   0  0  0  0  0  0  0  0  0  0  0  0
    5.2696    2.2344   -0.1761 H   0  0  0  0  0  0  0  0  0  0  0  0
    4.2624   -0.5457   -3.0551 H   0  0  0  0  0  0  0  0  0  0  0  0
    4.5508   -1.5641   -1.6279 H   0  0  0  0  0  0  0  0  0  0  0  0
    5.8857   -0.6801   -2.3724 H   0  0  0  0  0  0  0  0  0  0  0  0
   -0.9004   -3.4622   -1.5351 H   0  0  0  0  0  0  0  0  0  0  0  0
   -1.0056   -3.9432    0.2049 H   0  0  0  0  0  0  0  0  0  0  0  0
   -2.3383   -4.2751   -0.9079 H   0  0  0  0  0  0  0  0  0  0  0  0
   -0.3518    3.0633    2.3292 H   0  0  0  0  0  0  0  0  0  0  0  0
   -0.3120    3.7653    0.6643 H   0  0  0  0  0  0  0  0  0  0  0  0
    1.0483    3.9851    1.7687 H   0  0  0  0  0  0  0  0  0  0  0  0
   -3.8153    1.1179   -0.0675 H   0  0  0  0  0  0  0  0  0  0  0  0
   -3.9135   -0.5003   -0.7174 H   0  0  0  0  0  0  0  0  0  0  0  0
   -3.8086    0.1915    2.2844 H   0  0  0  0  0  0  0  0  0  0  0  0
   -3.9467   -1.4435    1.6390 H   0  0  0  0  0  0  0  0  0  0  0  0
   -1.8049    2.0263    0.7344 H   0  0  0  0  0  0  0  0  0  0  0  0
    0.5530   -2.2401   -0.1517 H   0  0  0  0  0  0  0  0  0  0  0  0
    2.4450    0.6385   -1.7676 H   0  0  0  0  0  0  0  0  0  0  0  0
    2.9172    1.8051   -0.5310 H   0  0  0  0  0  0  0  0  0  0  0  0
   -6.0469   -0.5998    2.2499 H   0  0  0  0  0  0  0  0  0  0  0  0
   -6.0121   -0.8351    0.6396 H   0  0  0  0  0  0  0  0  0  0  0  0
  1 10  2  3
  2 10  1  0
  3 16  1  0
  4 17  1  0
  5  6  1  0
  5 11  1  0
  6 15  1  0
  7 11  2  0
  7 13  1  0
  8 12  2  0
  8 14  1  0
  9 10  1  0
  9 18  1  0
 11 12  1  0
 12 16  1  0
 13 14  2  0
 13 17  1  0
 14 18  1  0
  1 19  1  0
  1 20  1  0
  2 21  1  0
  2 22  1  0
  2 23  1  0
  3 24  1  0
  3 25  1  0
  3 26  1  0
  4 27  1  0
  4 28  1  0
  4 29  1  0
  5 30  1  0
  5 31  1  0
  6 32  1  0
  6 33  1  0
  7 34  1  0
  8 35  1  0
  9 36  1  0
  9 37  1  0
 15 38  1  0
 15 39  1  0
M  END
