
     RDKit          3D

 26 26  0  0  0  0  0  0  0  0999 V2000
   -1.4399   -1.6080    0.5565 C   0  0  0  0  0  0  0  0  0  0  0  0
   -3.1051    1.6666   -0.0716 C   0  0  0  0  0  0  0  0  0  0  0  0
    3.1080   -1.2041   -0.5265 C   0  0  0  0  0  0  0  0  0  0  0  0
    1.7845   -0.9987   -0.9266 C   0  0  0  0  0  0  0  0  0  0  0  0
    3.6872   -0.3630    0.4214 C   0  0  0  0  0  0  0  0  0  0  0  0
   -0.4060    0.2693   -0.8106 C   0  0  0  0  0  0  0  0  0  0  0  0
    1.6204    0.8896    0.5705 C   0  0  0  0  0  0  0  0  0  0  0  0
   -1.4503   -0.1010    0.2705 C   0  0  0  0  0  0  0  0  0  0  0  0
    1.0267    0.0489   -0.3808 C   0  0  0  0  0  0  0  0  0  0  0  0
    2.9389    0.6759    0.9606 C   0  0  0  0  0  0  0  0  0  0  0  0
    3.4955    1.4860    1.8708 F   0  0  0  0  0  0  0  0  0  0  0  0
   -2.8252    0.2400   -0.1357 N   0  0  0  0  0  0  0  0  0  0  0  0
   -2.2081   -1.8720    1.2927 H   0  0  0  0  0  0  0  0  0  0  0  0
   -0.4781   -1.9264    0.9712 H   0  0  0  0  0  0  0  0  0  0  0  0
   -1.6281   -2.1920   -0.3517 H   0  0  0  0  0  0  0  0  0  0  0  0
   -4.1632    1.8358   -0.2952 H   0  0  0  0  0  0  0  0  0  0  0  0
   -2.5206    2.2360   -0.7996 H   0  0  0  0  0  0  0  0  0  0  0  0
   -2.9169    2.0648    0.9306 H   0  0  0  0  0  0  0  0  0  0  0  0
    3.6850   -2.0199   -0.9546 H   0  0  0  0  0  0  0  0  0  0  0  0
    1.3470   -1.6663   -1.6666 H   0  0  0  0  0  0  0  0  0  0  0  0
    4.7133   -0.5096    0.7421 H   0  0  0  0  0  0  0  0  0  0  0  0
   -0.6078   -0.2938   -1.7317 H   0  0  0  0  0  0  0  0  0  0  0  0
   -0.4972    1.3269   -1.0873 H   0  0  0  0  0  0  0  0  0  0  0  0
    1.0692    1.7138    1.0136 H   0  0  0  0  0  0  0  0  0  0  0  0
   -1.2172    0.4103    1.2132 H   0  0  0  0  0  0  0  0  0  0  0  0
   -3.0119   -0.1091   -1.0751 H   0  0  0  0  0  0  0  0  0  0  0  0
  1  8  1  0
  2 12  1  0
  3  4  2  0
  3  5  1  0
  4  9  1  0
  5 10  2  0
  6  8  1  0
  6  9  1  0
  7  9  2  0
  7 10  1  0
  8 12  1  0
 10 11  1  0
  1 13  1  0
  1 14  1  0
  1 15  1  0
  2 16  1  0
  2 17  1  0
  2 18  1  0
  3 19  1  0
  4 20  1  0
  5 21  1  0
  6 22  1  0
  6 23  1  0
  7 24  1  0
  8 25  1  0
 12 26  1  0
M  END
