
     RDKit          3D

 38 39  0  0  0  0  0  0  0  0999 V2000
   -1.7673    3.3312    1.3806 C   0  0  0  0  0  0  0  0  0  0  0  0
   -1.4681    1.8557    1.1520 C   0  0  0  0  0  0  0  0  0  0  0  0
    5.0592   -0.6915   -0.6695 C   0  0  0  0  0  0  0  0  0  0  0  0
    4.5364   -1.4920    0.3447 C   0  0  0  0  0  0  0  0  0  0  0  0
    4.2640    0.2854   -1.2682 C   0  0  0  0  0  0  0  0  0  0  0  0
   -3.0636   -1.7827   -1.3097 C   0  0  0  0  0  0  0  0  0  0  0  0
   -2.9737   -2.1092    0.1722 C   0  0  0  0  0  0  0  0  0  0  0  0
   -0.5767    1.6559   -0.0747 C   0  0  0  0  0  0  0  0  0  0  0  0
    3.2139   -1.3201    0.7559 C   0  0  0  0  0  0  0  0  0  0  0  0
    2.9390    0.4606   -0.8597 C   0  0  0  0  0  0  0  0  0  0  0  0
   -2.1940   -0.5490   -1.4534 C   0  0  0  0  0  0  0  0  0  0  0  0
   -1.6608   -1.4849    0.6425 C   0  0  0  0  0  0  0  0  0  0  0  0
    2.4042   -0.3521    0.1466 C   0  0  0  0  0  0  0  0  0  0  0  0
   -0.0986    0.2152   -0.3680 C   0  0  0  0  0  0  0  0  0  0  0  0
    1.0020   -0.2041    0.6321 C   0  0  0  0  0  0  0  0  0  0  0  0
   -1.0936   -0.8566   -0.5487 N   0  0  0  0  0  0  0  0  0  0  0  0
    0.7813   -0.4272    1.8240 O   0  0  0  0  0  0  0  0  0  0  0  0
   -2.4131    3.4553    2.2555 H   0  0  0  0  0  0  0  0  0  0  0  0
   -2.2789    3.7662    0.5161 H   0  0  0  0  0  0  0  0  0  0  0  0
   -0.8462    3.8961    1.5560 H   0  0  0  0  0  0  0  0  0  0  0  0
   -0.9863    1.4546    2.0489 H   0  0  0  0  0  0  0  0  0  0  0  0
   -2.4201    1.3325    1.0210 H   0  0  0  0  0  0  0  0  0  0  0  0
    6.0904   -0.8242   -0.9882 H   0  0  0  0  0  0  0  0  0  0  0  0
    5.1576   -2.2480    0.8185 H   0  0  0  0  0  0  0  0  0  0  0  0
    4.6799    0.9166   -2.0500 H   0  0  0  0  0  0  0  0  0  0  0  0
   -2.6535   -2.6114   -1.9003 H   0  0  0  0  0  0  0  0  0  0  0  0
   -4.0940   -1.6110   -1.6345 H   0  0  0  0  0  0  0  0  0  0  0  0
   -3.0045   -3.1898    0.3441 H   0  0  0  0  0  0  0  0  0  0  0  0
   -3.8160   -1.6558    0.7079 H   0  0  0  0  0  0  0  0  0  0  0  0
   -1.1055    2.0396   -0.9570 H   0  0  0  0  0  0  0  0  0  0  0  0
    0.3108    2.2932    0.0387 H   0  0  0  0  0  0  0  0  0  0  0  0
    2.8133   -1.9446    1.5524 H   0  0  0  0  0  0  0  0  0  0  0  0
    2.3546    1.2480   -1.3256 H   0  0  0  0  0  0  0  0  0  0  0  0
   -1.8579   -0.4158   -2.4862 H   0  0  0  0  0  0  0  0  0  0  0  0
   -2.7573    0.3383   -1.1448 H   0  0  0  0  0  0  0  0  0  0  0  0
   -1.8671   -0.7866    1.4573 H   0  0  0  0  0  0  0  0  0  0  0  0
   -0.9913   -2.2634    1.0235 H   0  0  0  0  0  0  0  0  0  0  0  0
    0.3816    0.2755   -1.3520 H   0  0  0  0  0  0  0  0  0  0  0  0
  1  2  1  0
  2  8  1  0
  3  4  2  0
  3  5  1  0
  4  9  1  0
  5 10  2  0
  6  7  1  0
  6 11  1  0
  7 12  1  0
  8 14  1  0
  9 13  2  0
 10 13  1  0
 11 16  1  0
 12 16  1  0
 13 15  1  0
 14 15  1  0
 14 16  1  0
 15 17  2  0
  1 18  1  0
  1 19  1  0
  1 20  1  0
  2 21  1  0
  2 22  1  0
  3 23  1  0
  4 24  1  0
  5 25  1  0
  6 26  1  0
  6 27  1  0
  7 28  1  0
  7 29  1  0
  8 30  1  0
  8 31  1  0
  9 32  1  0
 10 33  1  0
 11 34  1  0
 11 35  1  0
 12 36  1  0
 12 37  1  0
 14 38  1  0
M  END
