
     RDKit          3D

 40 40  0  0  0  0  0  0  0  0999 V2000
    4.1393   -1.1949    0.4978 C   0  0  0  0  0  0  0  0  0  0  0  0
   -0.2446    3.3223   -2.1487 C   0  0  0  0  0  0  0  0  0  0  0  0
   -0.6519   -2.9159    1.7756 C   0  0  0  0  0  0  0  0  0  0  0  0
    3.5391   -0.4697   -0.6967 C   0  0  0  0  0  0  0  0  0  0  0  0
    3.2258    1.0049   -0.4233 C   0  0  0  0  0  0  0  0  0  0  0  0
    2.1514    1.2625    0.6412 C   0  0  0  0  0  0  0  0  0  0  0  0
   -3.1546   -0.7195   -0.8185 C   0  0  0  0  0  0  0  0  0  0  0  0
   -4.2605   -0.2180    0.1231 C   0  0  0  0  0  0  0  0  0  0  0  0
    0.2884   -0.4234    0.8277 C   0  0  0  0  0  0  0  0  0  0  0  0
   -1.2908    0.9651   -0.9901 C   0  0  0  0  0  0  0  0  0  0  0  0
    0.7725    0.7681    0.2562 C   0  0  0  0  0  0  0  0  0  0  0  0
   -1.7717   -0.2328   -0.4254 C   0  0  0  0  0  0  0  0  0  0  0  0
   -0.0282    1.4671   -0.6616 C   0  0  0  0  0  0  0  0  0  0  0  0
   -0.9705   -0.9299    0.4923 C   0  0  0  0  0  0  0  0  0  0  0  0
   -4.3859   -1.0278    1.3342 N   0  0  0  0  0  0  0  0  0  0  0  0
    0.5061    2.6241   -1.1643 O   0  0  0  0  0  0  0  0  0  0  0  0
   -1.5110   -2.0723    1.0192 O   0  0  0  0  0  0  0  0  0  0  0  0
    4.4266   -2.2122    0.2130 H   0  0  0  0  0  0  0  0  0  0  0  0
    3.4275   -1.2719    1.3241 H   0  0  0  0  0  0  0  0  0  0  0  0
    5.0348   -0.6801    0.8600 H   0  0  0  0  0  0  0  0  0  0  0  0
   -0.4150    2.6994   -3.0329 H   0  0  0  0  0  0  0  0  0  0  0  0
    0.3430    4.1905   -2.4627 H   0  0  0  0  0  0  0  0  0  0  0  0
   -1.1883    3.6924   -1.7350 H   0  0  0  0  0  0  0  0  0  0  0  0
   -1.2084   -3.8260    2.0194 H   0  0  0  0  0  0  0  0  0  0  0  0
    0.2301   -3.2099    1.1967 H   0  0  0  0  0  0  0  0  0  0  0  0
   -0.3669   -2.4386    2.7186 H   0  0  0  0  0  0  0  0  0  0  0  0
    2.6411   -0.9978   -1.0352 H   0  0  0  0  0  0  0  0  0  0  0  0
    4.2571   -0.5189   -1.5245 H   0  0  0  0  0  0  0  0  0  0  0  0
    2.9296    1.4730   -1.3698 H   0  0  0  0  0  0  0  0  0  0  0  0
    4.1493    1.5077   -0.1095 H   0  0  0  0  0  0  0  0  0  0  0  0
    2.4548    0.8239    1.5993 H   0  0  0  0  0  0  0  0  0  0  0  0
    2.0929    2.3413    0.8364 H   0  0  0  0  0  0  0  0  0  0  0  0
   -3.3730   -0.3595   -1.8328 H   0  0  0  0  0  0  0  0  0  0  0  0
   -3.1689   -1.8138   -0.9002 H   0  0  0  0  0  0  0  0  0  0  0  0
   -4.0841    0.8281    0.3987 H   0  0  0  0  0  0  0  0  0  0  0  0
   -5.2214   -0.2604   -0.4010 H   0  0  0  0  0  0  0  0  0  0  0  0
    0.9207   -0.9388    1.5434 H   0  0  0  0  0  0  0  0  0  0  0  0
   -1.9324    1.4911   -1.6901 H   0  0  0  0  0  0  0  0  0  0  0  0
   -4.8528   -0.4874    2.0594 H   0  0  0  0  0  0  0  0  0  0  0  0
   -3.4492   -1.2418    1.6861 H   0  0  0  0  0  0  0  0  0  0  0  0
  1  4  1  0
  2 16  1  0
  3 17  1  0
  4  5  1  0
  5  6  1  0
  6 11  1  0
  7  8  1  0
  7 12  1  0
  8 15  1  0
  9 11  2  0
  9 14  1  0
 10 12  1  0
 10 13  2  0
 11 13  1  0
 12 14  2  0
 13 16  1  0
 14 17  1  0
  1 18  1  0
  1 19  1  0
  1 20  1  0
  2 21  1  0
  2 22  1  0
  2 23  1  0
  3 24  1  0
  3 25  1  0
  3 26  1  0
  4 27  1  0
  4 28  1  0
  5 29  1  0
  5 30  1  0
  6 31  1  0
  6 32  1  0
  7 33  1  0
  7 34  1  0
  8 35  1  0
  8 36  1  0
  9 37  1  0
 10 38  1  0
 15 39  1  0
 15 40  1  0
M  END
