
     RDKit          3D

 41 41  0  0  0  0  0  0  0  0999 V2000
    6.2700    0.3709   -0.3801 C   0  0  0  0  0  0  0  0  0  0  0  0
   -0.4462   -3.2521    1.9462 C   0  0  0  0  0  0  0  0  0  0  0  0
   -1.1064    0.1881   -3.7251 C   0  0  0  0  0  0  0  0  0  0  0  0
    4.8079    0.5062    0.0142 C   0  0  0  0  0  0  0  0  0  0  0  0
    3.9090   -0.3775   -0.8528 C   0  0  0  0  0  0  0  0  0  0  0  0
   -4.0298    0.3261    0.8593 C   0  0  0  0  0  0  0  0  0  0  0  0
   -3.8684    1.5283    1.7957 C   0  0  0  0  0  0  0  0  0  0  0  0
    2.4442   -0.2310   -0.4465 C   0  0  0  0  0  0  0  0  0  0  0  0
   -1.9282   -1.0853    0.8968 C   0  0  0  0  0  0  0  0  0  0  0  0
   -2.2270    0.5057   -0.8956 C   0  0  0  0  0  0  0  0  0  0  0  0
   -2.7078   -0.1020    0.2673 C   0  0  0  0  0  0  0  0  0  0  0  0
   -0.6834   -1.4677    0.3742 C   0  0  0  0  0  0  0  0  0  0  0  0
   -0.9958    0.1216   -1.4318 C   0  0  0  0  0  0  0  0  0  0  0  0
   -0.1998   -0.8478   -0.7974 C   0  0  0  0  0  0  0  0  0  0  0  0
   -5.1524    1.9242    2.3711 N   0  0  0  0  0  0  0  0  0  0  0  0
    0.1304   -2.4062    0.9609 O   0  0  0  0  0  0  0  0  0  0  0  0
   -0.5514    0.7837   -2.5514 O   0  0  0  0  0  0  0  0  0  0  0  0
    1.4006   -1.2947   -1.4928 S   0  0  0  0  0  0  0  0  0  0  0  0
    6.6140   -0.6615   -0.2619 H   0  0  0  0  0  0  0  0  0  0  0  0
    6.8938    1.0109    0.2517 H   0  0  0  0  0  0  0  0  0  0  0  0
    6.4244    0.6675   -1.4223 H   0  0  0  0  0  0  0  0  0  0  0  0
    0.2848   -4.0297    2.1877 H   0  0  0  0  0  0  0  0  0  0  0  0
   -1.3478   -3.7477    1.5711 H   0  0  0  0  0  0  0  0  0  0  0  0
   -0.6532   -2.6954    2.8657 H   0  0  0  0  0  0  0  0  0  0  0  0
   -0.9051   -0.8878   -3.7693 H   0  0  0  0  0  0  0  0  0  0  0  0
   -0.6332    0.6568   -4.5930 H   0  0  0  0  0  0  0  0  0  0  0  0
   -2.1839    0.3746   -3.7853 H   0  0  0  0  0  0  0  0  0  0  0  0
    4.6935    0.2324    1.0694 H   0  0  0  0  0  0  0  0  0  0  0  0
    4.5046    1.5552   -0.0832 H   0  0  0  0  0  0  0  0  0  0  0  0
    4.2262   -1.4233   -0.7508 H   0  0  0  0  0  0  0  0  0  0  0  0
    4.0376   -0.0980   -1.9062 H   0  0  0  0  0  0  0  0  0  0  0  0
   -4.4764   -0.5193    1.3991 H   0  0  0  0  0  0  0  0  0  0  0  0
   -4.7283    0.5669    0.0472 H   0  0  0  0  0  0  0  0  0  0  0  0
   -3.4501    2.3801    1.2475 H   0  0  0  0  0  0  0  0  0  0  0  0
   -3.1697    1.2902    2.6060 H   0  0  0  0  0  0  0  0  0  0  0  0
    2.1238    0.8101   -0.5615 H   0  0  0  0  0  0  0  0  0  0  0  0
    2.3145   -0.5160    0.6030 H   0  0  0  0  0  0  0  0  0  0  0  0
   -2.3088   -1.5313    1.8108 H   0  0  0  0  0  0  0  0  0  0  0  0
   -2.8024    1.2876   -1.3857 H   0  0  0  0  0  0  0  0  0  0  0  0
   -5.5141    1.1722    2.9567 H   0  0  0  0  0  0  0  0  0  0  0  0
   -5.0095    2.7215    2.9909 H   0  0  0  0  0  0  0  0  0  0  0  0
  1  4  1  0
  2 16  1  0
  3 17  1  0
  4  5  1  0
  5  8  1  0
  6  7  1  0
  6 11  1  0
  7 15  1  0
  8 18  1  0
  9 11  2  0
  9 12  1  0
 10 11  1  0
 10 13  2  0
 12 14  2  0
 12 16  1  0
 13 14  1  0
 13 17  1  0
 14 18  1  0
  1 19  1  0
  1 20  1  0
  1 21  1  0
  2 22  1  0
  2 23  1  0
  2 24  1  0
  3 25  1  0
  3 26  1  0
  3 27  1  0
  4 28  1  0
  4 29  1  0
  5 30  1  0
  5 31  1  0
  6 32  1  0
  6 33  1  0
  7 34  1  0
  7 35  1  0
  8 36  1  0
  8 37  1  0
  9 38  1  0
 10 39  1  0
 15 40  1  0
 15 41  1  0
M  END
