
     RDKit          3D

 41 41  0  0  0  0  0  0  0  0999 V2000
    4.9625    0.1745    1.3519 C   0  0  0  0  0  0  0  0  0  0  0  0
   -3.8299    1.8400    1.4528 C   0  0  0  0  0  0  0  0  0  0  0  0
    0.6085    2.8519   -2.2597 C   0  0  0  0  0  0  0  0  0  0  0  0
   -2.5348   -3.3789    0.1527 C   0  0  0  0  0  0  0  0  0  0  0  0
    4.1278   -0.5177    0.2816 C   0  0  0  0  0  0  0  0  0  0  0  0
   -4.4766    0.6599    0.7476 C   0  0  0  0  0  0  0  0  0  0  0  0
    1.8751   -0.8890   -0.7941 C   0  0  0  0  0  0  0  0  0  0  0  0
   -0.5582   -1.4586   -0.4562 C   0  0  0  0  0  0  0  0  0  0  0  0
   -1.3712    1.0463   -1.3596 C   0  0  0  0  0  0  0  0  0  0  0  0
    0.4050   -0.5178   -0.8678 C   0  0  0  0  0  0  0  0  0  0  0  0
    2.6134   -0.2693    0.4159 C   0  0  0  0  0  0  0  0  0  0  0  0
   -0.0082    0.7433   -1.3271 C   0  0  0  0  0  0  0  0  0  0  0  0
   -1.9239   -1.1612   -0.4942 C   0  0  0  0  0  0  0  0  0  0  0  0
   -2.3295    0.1113   -0.9340 C   0  0  0  0  0  0  0  0  0  0  0  0
    2.1118   -0.8349    1.6794 N   0  0  0  0  0  0  0  0  0  0  0  0
    0.9924    1.5978   -1.7096 O   0  0  0  0  0  0  0  0  0  0  0  0
   -2.9115   -2.0356   -0.1195 O   0  0  0  0  0  0  0  0  0  0  0  0
   -4.0520    0.6179   -1.0270 S   0  0  0  0  0  0  0  0  0  0  0  0
    4.7725   -0.2423    2.3453 H   0  0  0  0  0  0  0  0  0  0  0  0
    6.0282    0.0430    1.1380 H   0  0  0  0  0  0  0  0  0  0  0  0
    4.7533    1.2485    1.3792 H   0  0  0  0  0  0  0  0  0  0  0  0
   -4.1604    1.8738    2.4964 H   0  0  0  0  0  0  0  0  0  0  0  0
   -2.7381    1.7633    1.4588 H   0  0  0  0  0  0  0  0  0  0  0  0
   -4.1109    2.7903    0.9867 H   0  0  0  0  0  0  0  0  0  0  0  0
    0.0032    2.7201   -3.1627 H   0  0  0  0  0  0  0  0  0  0  0  0
    0.0869    3.4640   -1.5168 H   0  0  0  0  0  0  0  0  0  0  0  0
    1.5210    3.3836   -2.5461 H   0  0  0  0  0  0  0  0  0  0  0  0
   -2.0313   -3.8339   -0.7068 H   0  0  0  0  0  0  0  0  0  0  0  0
   -1.9150   -3.4370    1.0533 H   0  0  0  0  0  0  0  0  0  0  0  0
   -3.4489   -3.9497    0.3424 H   0  0  0  0  0  0  0  0  0  0  0  0
    4.4638   -0.1515   -0.6967 H   0  0  0  0  0  0  0  0  0  0  0  0
    4.3393   -1.5943    0.3024 H   0  0  0  0  0  0  0  0  0  0  0  0
   -4.2032   -0.2773    1.2397 H   0  0  0  0  0  0  0  0  0  0  0  0
   -5.5652    0.7538    0.8183 H   0  0  0  0  0  0  0  0  0  0  0  0
    1.9806   -1.9825   -0.7756 H   0  0  0  0  0  0  0  0  0  0  0  0
    2.3560   -0.5752   -1.7302 H   0  0  0  0  0  0  0  0  0  0  0  0
   -0.2049   -2.4223   -0.1007 H   0  0  0  0  0  0  0  0  0  0  0  0
   -1.7196    2.0133   -1.7082 H   0  0  0  0  0  0  0  0  0  0  0  0
    2.4379    0.8132    0.4371 H   0  0  0  0  0  0  0  0  0  0  0  0
    1.1129   -0.6362    1.7503 H   0  0  0  0  0  0  0  0  0  0  0  0
    2.5411   -0.3444    2.4626 H   0  0  0  0  0  0  0  0  0  0  0  0
  1  5  1  0
  2  6  1  0
  3 16  1  0
  4 17  1  0
  5 11  1  0
  6 18  1  0
  7 10  1  0
  7 11  1  0
  8 10  2  0
  8 13  1  0
  9 12  2  0
  9 14  1  0
 10 12  1  0
 11 15  1  0
 12 16  1  0
 13 14  2  0
 13 17  1  0
 14 18  1  0
  1 19  1  0
  1 20  1  0
  1 21  1  0
  2 22  1  0
  2 23  1  0
  2 24  1  0
  3 25  1  0
  3 26  1  0
  3 27  1  0
  4 28  1  0
  4 29  1  0
  4 30  1  0
  5 31  1  0
  5 32  1  0
  6 33  1  0
  6 34  1  0
  7 35  1  0
  7 36  1  0
  8 37  1  0
  9 38  1  0
 11 39  1  0
 15 40  1  0
 15 41  1  0
M  END
