
     RDKit          3D

 41 41  0  0  0  0  0  0  0  0999 V2000
    4.8201    1.4990    0.1452 C   0  0  0  0  0  0  0  0  0  0  0  0
    0.0128   -0.3307    3.7520 C   0  0  0  0  0  0  0  0  0  0  0  0
   -0.9596   -1.8762   -3.2037 C   0  0  0  0  0  0  0  0  0  0  0  0
    4.6756    0.3593   -0.8512 C   0  0  0  0  0  0  0  0  0  0  0  0
    3.7058   -0.7291   -0.3942 C   0  0  0  0  0  0  0  0  0  0  0  0
   -4.0223    0.0523    0.5193 C   0  0  0  0  0  0  0  0  0  0  0  0
   -4.3107    1.4827    0.0420 C   0  0  0  0  0  0  0  0  0  0  0  0
    2.2593   -0.2535   -0.2809 C   0  0  0  0  0  0  0  0  0  0  0  0
   -1.7214   -0.2700    1.5177 C   0  0  0  0  0  0  0  0  0  0  0  0
   -2.0474   -0.7639   -0.8366 C   0  0  0  0  0  0  0  0  0  0  0  0
   -2.5666   -0.3424    0.3982 C   0  0  0  0  0  0  0  0  0  0  0  0
   -0.3711   -0.6111    1.4155 C   0  0  0  0  0  0  0  0  0  0  0  0
   -0.7006   -1.1130   -0.9605 C   0  0  0  0  0  0  0  0  0  0  0  0
    0.1325   -1.0122    0.1667 C   0  0  0  0  0  0  0  0  0  0  0  0
   -3.7158    2.4979    0.9118 N   0  0  0  0  0  0  0  0  0  0  0  0
    0.5285   -0.5671    2.4494 O   0  0  0  0  0  0  0  0  0  0  0  0
   -0.1050   -1.5316   -2.1225 O   0  0  0  0  0  0  0  0  0  0  0  0
    1.4545   -1.3887    0.0617 O   0  0  0  0  0  0  0  0  0  0  0  0
    3.8889    2.0640    0.2463 H   0  0  0  0  0  0  0  0  0  0  0  0
    5.5948    2.1956   -0.1911 H   0  0  0  0  0  0  0  0  0  0  0  0
    5.1073    1.1240    1.1325 H   0  0  0  0  0  0  0  0  0  0  0  0
   -0.3917    0.6833    3.8353 H   0  0  0  0  0  0  0  0  0  0  0  0
   -0.7367   -1.0805    4.0264 H   0  0  0  0  0  0  0  0  0  0  0  0
    0.8426   -0.4158    4.4603 H   0  0  0  0  0  0  0  0  0  0  0  0
   -1.4537   -0.9877   -3.6096 H   0  0  0  0  0  0  0  0  0  0  0  0
   -0.3390   -2.3023   -3.9978 H   0  0  0  0  0  0  0  0  0  0  0  0
   -1.6910   -2.6362   -2.9089 H   0  0  0  0  0  0  0  0  0  0  0  0
    5.6612   -0.0958   -1.0057 H   0  0  0  0  0  0  0  0  0  0  0  0
    4.3566    0.7603   -1.8203 H   0  0  0  0  0  0  0  0  0  0  0  0
    3.7486   -1.5648   -1.1043 H   0  0  0  0  0  0  0  0  0  0  0  0
    4.0299   -1.1449    0.5681 H   0  0  0  0  0  0  0  0  0  0  0  0
   -4.3599   -0.0747    1.5562 H   0  0  0  0  0  0  0  0  0  0  0  0
   -4.6235   -0.6502   -0.0725 H   0  0  0  0  0  0  0  0  0  0  0  0
   -3.9478    1.6273   -0.9820 H   0  0  0  0  0  0  0  0  0  0  0  0
   -5.3951    1.6376    0.0292 H   0  0  0  0  0  0  0  0  0  0  0  0
    1.9339    0.1691   -1.2396 H   0  0  0  0  0  0  0  0  0  0  0  0
    2.1743    0.5139    0.4971 H   0  0  0  0  0  0  0  0  0  0  0  0
   -2.1460    0.0669    2.4589 H   0  0  0  0  0  0  0  0  0  0  0  0
   -2.7168   -0.8073   -1.6897 H   0  0  0  0  0  0  0  0  0  0  0  0
   -3.9054    3.4224    0.5259 H   0  0  0  0  0  0  0  0  0  0  0  0
   -2.7001    2.3942    0.8972 H   0  0  0  0  0  0  0  0  0  0  0  0
  1  4  1  0
  2 16  1  0
  3 17  1  0
  4  5  1  0
  5  8  1  0
  6  7  1  0
  6 11  1  0
  7 15  1  0
  8 18  1  0
  9 11  2  0
  9 12  1  0
 10 11  1  0
 10 13  2  0
 12 14  2  0
 12 16  1  0
 13 14  1  0
 13 17  1  0
 14 18  1  0
  1 19  1  0
  1 20  1  0
  1 21  1  0
  2 22  1  0
  2 23  1  0
  2 24  1  0
  3 25  1  0
  3 26  1  0
  3 27  1  0
  4 28  1  0
  4 29  1  0
  5 30  1  0
  5 31  1  0
  6 32  1  0
  6 33  1  0
  7 34  1  0
  7 35  1  0
  8 36  1  0
  8 37  1  0
  9 38  1  0
 10 39  1  0
 15 40  1  0
 15 41  1  0
M  END
