
     RDKit          3D

 39 40  0  0  0  0  0  0  0  0999 V2000
   -1.9697    3.7083   -0.0045 C   0  0  0  0  0  0  0  0  0  0  0  0
    4.4976   -0.0119    2.3410 C   0  0  0  0  0  0  0  0  0  0  0  0
   -1.2392    2.4510   -0.4558 C   0  0  0  0  0  0  0  0  0  0  0  0
   -1.3449   -2.8434   -0.6375 C   0  0  0  0  0  0  0  0  0  0  0  0
   -1.6461   -1.9116   -1.8063 C   0  0  0  0  0  0  0  0  0  0  0  0
    2.4477    0.0445   -1.3549 C   0  0  0  0  0  0  0  0  0  0  0  0
    1.0506    0.0316   -1.3366 C   0  0  0  0  0  0  0  0  0  0  0  0
    3.1708    0.0133   -0.1632 C   0  0  0  0  0  0  0  0  0  0  0  0
   -2.0821   -2.4230    0.6198 C   0  0  0  0  0  0  0  0  0  0  0  0
   -1.9227   -0.4633   -1.3789 C   0  0  0  0  0  0  0  0  0  0  0  0
    1.0972   -0.0330    1.0642 C   0  0  0  0  0  0  0  0  0  0  0  0
    0.3403   -0.0296   -0.1259 C   0  0  0  0  0  0  0  0  0  0  0  0
    2.4977   -0.0190    1.0540 C   0  0  0  0  0  0  0  0  0  0  0  0
   -1.7074   -1.0142    1.0377 C   0  0  0  0  0  0  0  0  0  0  0  0
   -1.1988   -0.0260   -0.0753 C   0  0  0  0  0  0  0  0  0  0  0  0
   -1.7304    1.3119    0.3109 N   0  0  0  0  0  0  0  0  0  0  0  0
   -1.8295   -0.6739    2.2211 O   0  0  0  0  0  0  0  0  0  0  0  0
    3.0770   -0.0361    2.2929 O   0  0  0  0  0  0  0  0  0  0  0  0
   -1.7934    3.9113    1.0574 H   0  0  0  0  0  0  0  0  0  0  0  0
   -1.6175    4.5737   -0.5751 H   0  0  0  0  0  0  0  0  0  0  0  0
   -3.0498    3.6175   -0.1627 H   0  0  0  0  0  0  0  0  0  0  0  0
    4.7968   -0.0263    3.3935 H   0  0  0  0  0  0  0  0  0  0  0  0
    4.9240   -0.8993    1.8616 H   0  0  0  0  0  0  0  0  0  0  0  0
    4.8923    0.9071    1.8953 H   0  0  0  0  0  0  0  0  0  0  0  0
   -0.1661    2.6044   -0.3019 H   0  0  0  0  0  0  0  0  0  0  0  0
   -1.4167    2.3156   -1.5270 H   0  0  0  0  0  0  0  0  0  0  0  0
   -0.2652   -2.8470   -0.4442 H   0  0  0  0  0  0  0  0  0  0  0  0
   -1.6122   -3.8713   -0.9080 H   0  0  0  0  0  0  0  0  0  0  0  0
   -0.8131   -1.9502   -2.5175 H   0  0  0  0  0  0  0  0  0  0  0  0
   -2.5217   -2.2823   -2.3540 H   0  0  0  0  0  0  0  0  0  0  0  0
    2.9749    0.0870   -2.3052 H   0  0  0  0  0  0  0  0  0  0  0  0
    0.5347    0.0843   -2.2915 H   0  0  0  0  0  0  0  0  0  0  0  0
    4.2537    0.0261   -0.2204 H   0  0  0  0  0  0  0  0  0  0  0  0
   -3.1658   -2.4568    0.4646 H   0  0  0  0  0  0  0  0  0  0  0  0
   -1.8270   -3.1047    1.4381 H   0  0  0  0  0  0  0  0  0  0  0  0
   -3.0088   -0.3754   -1.2226 H   0  0  0  0  0  0  0  0  0  0  0  0
   -1.7007    0.1995   -2.2233 H   0  0  0  0  0  0  0  0  0  0  0  0
    0.6008   -0.0365    2.0342 H   0  0  0  0  0  0  0  0  0  0  0  0
   -1.5271    1.4475    1.3059 H   0  0  0  0  0  0  0  0  0  0  0  0
  1  3  1  0
  2 18  1  0
  3 16  1  0
  4  5  1  0
  4  9  1  0
  5 10  1  0
  6  7  2  0
  6  8  1  0
  7 12  1  0
  8 13  2  0
  9 14  1  0
 10 15  1  0
 11 12  2  0
 11 13  1  0
 12 15  1  0
 13 18  1  0
 14 15  1  0
 14 17  2  0
 15 16  1  0
  1 19  1  0
  1 20  1  0
  1 21  1  0
  2 22  1  0
  2 23  1  0
  2 24  1  0
  3 25  1  0
  3 26  1  0
  4 27  1  0
  4 28  1  0
  5 29  1  0
  5 30  1  0
  6 31  1  0
  7 32  1  0
  8 33  1  0
  9 34  1  0
  9 35  1  0
 10 36  1  0
 10 37  1  0
 11 38  1  0
 16 39  1  0
M  END
