
     RDKit          3D

 41 41  0  0  0  0  0  0  0  0999 V2000
   -3.7782   -2.2894    1.2994 C   0  0  0  0  0  0  0  0  0  0  0  0
   -4.0346    1.9879   -2.6326 C   0  0  0  0  0  0  0  0  0  0  0  0
    2.8750   -2.2482    0.9435 C   0  0  0  0  0  0  0  0  0  0  0  0
    2.7027    2.2253   -2.3544 C   0  0  0  0  0  0  0  0  0  0  0  0
   -2.3976   -1.6577    1.3010 C   0  0  0  0  0  0  0  0  0  0  0  0
   -3.3036    1.1395   -1.6062 C   0  0  0  0  0  0  0  0  0  0  0  0
    2.4026    0.2293    1.3401 C   0  0  0  0  0  0  0  0  0  0  0  0
   -0.0145   -0.2247    0.7747 C   0  0  0  0  0  0  0  0  0  0  0  0
    0.1896    1.1626   -1.6273 C   0  0  0  0  0  0  0  0  0  0  0  0
    3.4336   -0.8257    0.8825 C   0  0  0  0  0  0  0  0  0  0  0  0
    1.2114    0.3687    0.4130 C   0  0  0  0  0  0  0  0  0  0  0  0
    1.3129    1.0597   -0.8057 C   0  0  0  0  0  0  0  0  0  0  0  0
   -1.1379   -0.1362   -0.0544 C   0  0  0  0  0  0  0  0  0  0  0  0
   -1.0334    0.5940   -1.2477 C   0  0  0  0  0  0  0  0  0  0  0  0
    4.6327   -0.7717    1.7335 N   0  0  0  0  0  0  0  0  0  0  0  0
    2.5401    1.5996   -1.0879 O   0  0  0  0  0  0  0  0  0  0  0  0
   -2.3396   -0.7318    0.2186 O   0  0  0  0  0  0  0  0  0  0  0  0
   -2.0405    0.7708   -2.1652 O   0  0  0  0  0  0  0  0  0  0  0  0
   -3.8812   -3.0047    2.1200 H   0  0  0  0  0  0  0  0  0  0  0  0
   -3.9629   -2.8082    0.3531 H   0  0  0  0  0  0  0  0  0  0  0  0
   -4.5535   -1.5224    1.3986 H   0  0  0  0  0  0  0  0  0  0  0  0
   -3.4423    2.8716   -2.8942 H   0  0  0  0  0  0  0  0  0  0  0  0
   -4.1900    1.4224   -3.5582 H   0  0  0  0  0  0  0  0  0  0  0  0
   -5.0065    2.3123   -2.2505 H   0  0  0  0  0  0  0  0  0  0  0  0
    2.0479   -2.3782    0.2382 H   0  0  0  0  0  0  0  0  0  0  0  0
    2.5082   -2.4934    1.9467 H   0  0  0  0  0  0  0  0  0  0  0  0
    3.6434   -2.9824    0.6761 H   0  0  0  0  0  0  0  0  0  0  0  0
    2.5136    1.5213   -3.1712 H   0  0  0  0  0  0  0  0  0  0  0  0
    3.7441    2.5530   -2.4331 H   0  0  0  0  0  0  0  0  0  0  0  0
    2.0676    3.1128   -2.4395 H   0  0  0  0  0  0  0  0  0  0  0  0
   -2.2454   -1.1351    2.2520 H   0  0  0  0  0  0  0  0  0  0  0  0
   -1.6446   -2.4447    1.1762 H   0  0  0  0  0  0  0  0  0  0  0  0
   -3.1879    1.7199   -0.6829 H   0  0  0  0  0  0  0  0  0  0  0  0
   -3.8926    0.2377   -1.4103 H   0  0  0  0  0  0  0  0  0  0  0  0
    2.8842    1.2130    1.4286 H   0  0  0  0  0  0  0  0  0  0  0  0
    2.0528   -0.0058    2.3548 H   0  0  0  0  0  0  0  0  0  0  0  0
   -0.0602   -0.7628    1.7166 H   0  0  0  0  0  0  0  0  0  0  0  0
    0.2223    1.6915   -2.5740 H   0  0  0  0  0  0  0  0  0  0  0  0
    3.7496   -0.6249   -0.1473 H   0  0  0  0  0  0  0  0  0  0  0  0
    4.3714   -0.9056    2.7091 H   0  0  0  0  0  0  0  0  0  0  0  0
    5.0415    0.1604    1.6734 H   0  0  0  0  0  0  0  0  0  0  0  0
  1  5  1  0
  2  6  1  0
  3 10  1  0
  4 16  1  0
  5 17  1  0
  6 18  1  0
  7 10  1  0
  7 11  1  0
  8 11  2  0
  8 13  1  0
  9 12  2  0
  9 14  1  0
 10 15  1  0
 11 12  1  0
 12 16  1  0
 13 14  2  0
 13 17  1  0
 14 18  1  0
  1 19  1  0
  1 20  1  0
  1 21  1  0
  2 22  1  0
  2 23  1  0
  2 24  1  0
  3 25  1  0
  3 26  1  0
  3 27  1  0
  4 28  1  0
  4 29  1  0
  4 30  1  0
  5 31  1  0
  5 32  1  0
  6 33  1  0
  6 34  1  0
  7 35  1  0
  7 36  1  0
  8 37  1  0
  9 38  1  0
 10 39  1  0
 15 40  1  0
 15 41  1  0
M  END
