
     RDKit          3D

 36 38  0  0  0  0  0  0  0  0999 V2000
    4.8230   -1.1518    1.0098 C   0  0  0  0  0  0  0  0  0  0  0  0
    0.0313   -2.3893   -1.4301 C   0  0  0  0  0  0  0  0  0  0  0  0
    4.2057   -1.1492   -0.3759 C   0  0  0  0  0  0  0  0  0  0  0  0
   -4.2995    2.1287    0.6525 C   0  0  0  0  0  0  0  0  0  0  0  0
   -4.8485    0.8562    0.5197 C   0  0  0  0  0  0  0  0  0  0  0  0
   -2.9558    2.3431    0.3499 C   0  0  0  0  0  0  0  0  0  0  0  0
   -0.0162   -0.7474    0.4216 C   0  0  0  0  0  0  0  0  0  0  0  0
   -0.1659    2.7089   -0.6185 C   0  0  0  0  0  0  0  0  0  0  0  0
   -4.0689   -0.2052    0.0465 C   0  0  0  0  0  0  0  0  0  0  0  0
   -2.1509    1.2790   -0.0953 C   0  0  0  0  0  0  0  0  0  0  0  0
    0.2613    0.6093   -0.0972 C   0  0  0  0  0  0  0  0  0  0  0  0
   -2.7183   -0.0016   -0.2891 C   0  0  0  0  0  0  0  0  0  0  0  0
    1.4355    1.2790   -0.4242 C   0  0  0  0  0  0  0  0  0  0  0  0
   -1.9991   -1.0781   -1.0289 C   0  0  0  0  0  0  0  0  0  0  0  0
    2.8161    0.7754   -0.4541 C   0  0  0  0  0  0  0  0  0  0  0  0
   -4.8382   -1.7543   -0.0312 Cl  0  0  0  0  0  0  0  0  0  0  0  0
    1.1371    2.5998   -0.7159 N   0  0  0  0  0  0  0  0  0  0  0  0
   -0.7302   -1.4601   -0.6108 N   0  0  0  0  0  0  0  0  0  0  0  0
   -0.7644    1.5176   -0.2925 N   0  0  0  0  0  0  0  0  0  0  0  0
   -2.5432   -1.5525   -2.0231 O   0  0  0  0  0  0  0  0  0  0  0  0
    3.7986    1.4964   -0.5855 O   0  0  0  0  0  0  0  0  0  0  0  0
    2.8876   -0.5844   -0.3280 O   0  0  0  0  0  0  0  0  0  0  0  0
    5.8035   -1.6360    0.9968 H   0  0  0  0  0  0  0  0  0  0  0  0
    4.9417   -0.1321    1.3894 H   0  0  0  0  0  0  0  0  0  0  0  0
    4.1765   -1.6815    1.7172 H   0  0  0  0  0  0  0  0  0  0  0  0
    0.7381   -1.8221   -2.0427 H   0  0  0  0  0  0  0  0  0  0  0  0
    0.5770   -3.0786   -0.7792 H   0  0  0  0  0  0  0  0  0  0  0  0
   -0.6188   -2.9715   -2.0886 H   0  0  0  0  0  0  0  0  0  0  0  0
    4.8411   -0.6262   -1.0998 H   0  0  0  0  0  0  0  0  0  0  0  0
    4.0975   -2.1793   -0.7312 H   0  0  0  0  0  0  0  0  0  0  0  0
   -4.9158    2.9498    1.0136 H   0  0  0  0  0  0  0  0  0  0  0  0
   -5.8931    0.6957    0.7796 H   0  0  0  0  0  0  0  0  0  0  0  0
   -2.5541    3.3407    0.5163 H   0  0  0  0  0  0  0  0  0  0  0  0
    0.8765   -1.3034    0.7154 H   0  0  0  0  0  0  0  0  0  0  0  0
   -0.6471   -0.6926    1.3173 H   0  0  0  0  0  0  0  0  0  0  0  0
   -0.7201    3.6179   -0.8118 H   0  0  0  0  0  0  0  0  0  0  0  0
  1  3  1  0
  2 18  1  0
  3 22  1  0
  4  5  2  0
  4  6  1  0
  5  9  1  0
  6 10  2  0
  7 11  1  0
  7 18  1  0
  8 17  2  0
  8 19  1  0
  9 12  2  0
  9 16  1  0
 10 12  1  0
 10 19  1  0
 11 13  2  0
 11 19  1  0
 12 14  1  0
 13 15  1  0
 13 17  1  0
 14 18  1  0
 14 20  2  0
 15 21  2  0
 15 22  1  0
  1 23  1  0
  1 24  1  0
  1 25  1  0
  2 26  1  0
  2 27  1  0
  2 28  1  0
  3 29  1  0
  3 30  1  0
  4 31  1  0
  5 32  1  0
  6 33  1  0
  7 34  1  0
  7 35  1  0
  8 36  1  0
M  END
