
     RDKit          3D

 34 35  0  0  0  0  0  0  0  0999 V2000
   -3.4210   -2.2601   -0.0433 C   0  0  0  0  0  0  0  0  0  0  0  0
   -2.7949   -1.4764    0.9226 C   0  0  0  0  0  0  0  0  0  0  0  0
   -2.9376   -2.2723   -1.3491 C   0  0  0  0  0  0  0  0  0  0  0  0
   -1.6828   -0.7031    0.5844 C   0  0  0  0  0  0  0  0  0  0  0  0
   -1.8263   -1.4999   -1.6912 C   0  0  0  0  0  0  0  0  0  0  0  0
    1.2868    2.0285    0.1394 C   0  0  0  0  0  0  0  0  0  0  0  0
   -0.9845    2.3589   -0.5886 C   0  0  0  0  0  0  0  0  0  0  0  0
    1.2924    3.3192    0.6810 C   0  0  0  0  0  0  0  0  0  0  0  0
   -0.9797    3.6465   -0.0471 C   0  0  0  0  0  0  0  0  0  0  0  0
    1.6003   -1.4168    0.6079 C   0  0  0  0  0  0  0  0  0  0  0  0
   -1.1828   -0.6999   -0.7300 C   0  0  0  0  0  0  0  0  0  0  0  0
    0.1430    1.5088   -0.4901 C   0  0  0  0  0  0  0  0  0  0  0  0
    0.1597    4.1136    0.5875 C   0  0  0  0  0  0  0  0  0  0  0  0
    2.8954   -2.0687    0.9778 C   0  0  0  0  0  0  0  0  0  0  0  0
    0.0500    0.1150   -1.1300 C   0  0  0  0  0  0  0  0  0  0  0  0
    0.1703    5.3477    1.1072 F   0  0  0  0  0  0  0  0  0  0  0  0
    4.0738   -1.8455    0.5180 N   0  0  0  0  0  0  0  0  0  0  0  0
    2.8131   -2.9573    1.9717 O   0  0  0  0  0  0  0  0  0  0  0  0
    2.7596   -0.1708   -1.4874 O   0  0  0  0  0  0  0  0  0  0  0  0
    1.5382   -0.9746   -1.1443 S   0  0  0  0  0  4  0  0  0  0  0  0
   -4.2870   -2.8615    0.2219 H   0  0  0  0  0  0  0  0  0  0  0  0
   -3.1739   -1.4665    1.9418 H   0  0  0  0  0  0  0  0  0  0  0  0
   -3.4267   -2.8852   -2.1026 H   0  0  0  0  0  0  0  0  0  0  0  0
   -1.2159   -0.0999    1.3612 H   0  0  0  0  0  0  0  0  0  0  0  0
   -1.4664   -1.5290   -2.7185 H   0  0  0  0  0  0  0  0  0  0  0  0
    2.2111    1.4623    0.2130 H   0  0  0  0  0  0  0  0  0  0  0  0
   -1.8879    2.0172   -1.0936 H   0  0  0  0  0  0  0  0  0  0  0  0
    2.1827    3.7099    1.1645 H   0  0  0  0  0  0  0  0  0  0  0  0
   -1.8542    4.2847   -0.1230 H   0  0  0  0  0  0  0  0  0  0  0  0
    0.7888   -2.1215    0.8088 H   0  0  0  0  0  0  0  0  0  0  0  0
    1.4765   -0.5356    1.2396 H   0  0  0  0  0  0  0  0  0  0  0  0
   -0.0627    0.3441   -2.2006 H   0  0  0  0  0  0  0  0  0  0  0  0
    4.0234   -1.1321   -0.2338 H   0  0  0  0  0  0  0  0  0  0  0  0
    3.7194   -3.2797    2.1248 H   0  0  0  0  0  0  0  0  0  0  0  0
  1  2  2  0
  1  3  1  0
  2  4  1  0
  3  5  2  0
  4 11  2  0
  5 11  1  0
  6  8  2  0
  6 12  1  0
  7  9  1  0
  7 12  2  0
  8 13  1  0
  9 13  2  0
 10 14  1  0
 10 20  1  0
 11 15  1  0
 12 15  1  0
 13 16  1  0
 14 17  2  3
 14 18  1  0
 15 20  1  0
 19 20  2  0
  1 21  1  0
  2 22  1  0
  3 23  1  0
  4 24  1  0
  5 25  1  0
  6 26  1  0
  7 27  1  0
  8 28  1  0
  9 29  1  0
 10 30  1  0
 10 31  1  0
 15 32  1  0
 17 33  1  0
 18 34  1  0
M  END
