
     RDKit          3D

 37 38  0  0  0  0  0  0  0  0999 V2000
    4.3025    0.2730   -0.1271 C   0  0  0  0  0  0  0  0  0  0  0  0
   -2.0091    2.8379   -2.1044 C   0  0  0  0  0  0  0  0  0  0  0  0
    0.6224   -3.1866    0.4242 C   0  0  0  0  0  0  0  0  0  0  0  0
   -4.0641   -0.5647    1.8123 C   0  0  0  0  0  0  0  0  0  0  0  0
   -3.2402   -1.4898    2.4348 C   0  0  0  0  0  0  0  0  0  0  0  0
   -3.5574    0.2290    0.7826 C   0  0  0  0  0  0  0  0  0  0  0  0
   -1.9168   -1.6266    2.0161 C   0  0  0  0  0  0  0  0  0  0  0  0
    1.9429   -0.2112   -0.8857 C   0  0  0  0  0  0  0  0  0  0  0  0
   -0.3498    0.8110   -1.0693 C   0  0  0  0  0  0  0  0  0  0  0  0
    2.8409    0.7148   -0.0377 C   0  0  0  0  0  0  0  0  0  0  0  0
    0.4851   -0.1468   -0.4798 C   0  0  0  0  0  0  0  0  0  0  0  0
   -2.2187    0.1156    0.3422 C   0  0  0  0  0  0  0  0  0  0  0  0
   -1.3853   -0.8487    0.9614 C   0  0  0  0  0  0  0  0  0  0  0  0
   -1.6873    0.9438   -0.6790 C   0  0  0  0  0  0  0  0  0  0  0  0
   -0.0506   -0.9872    0.5088 C   0  0  0  0  0  0  0  0  0  0  0  0
    2.7381    2.1127   -0.4853 N   0  0  0  0  0  0  0  0  0  0  0  0
   -2.5555    1.8587   -1.2306 O   0  0  0  0  0  0  0  0  0  0  0  0
    0.7780   -1.9268    1.0852 O   0  0  0  0  0  0  0  0  0  0  0  0
    4.4206   -0.7478    0.2522 H   0  0  0  0  0  0  0  0  0  0  0  0
    4.6664    0.2926   -1.1606 H   0  0  0  0  0  0  0  0  0  0  0  0
    4.9482    0.9238    0.4729 H   0  0  0  0  0  0  0  0  0  0  0  0
   -1.2238    3.4196   -1.6103 H   0  0  0  0  0  0  0  0  0  0  0  0
   -1.6436    2.3789   -3.0286 H   0  0  0  0  0  0  0  0  0  0  0  0
   -2.8133    3.5293   -2.3742 H   0  0  0  0  0  0  0  0  0  0  0  0
   -0.3608   -3.6237    0.6248 H   0  0  0  0  0  0  0  0  0  0  0  0
    0.7803   -3.1012   -0.6566 H   0  0  0  0  0  0  0  0  0  0  0  0
    1.3811   -3.8664    0.8233 H   0  0  0  0  0  0  0  0  0  0  0  0
   -5.0965   -0.4478    2.1298 H   0  0  0  0  0  0  0  0  0  0  0  0
   -3.6204   -2.1024    3.2475 H   0  0  0  0  0  0  0  0  0  0  0  0
   -4.2202    0.9587    0.3204 H   0  0  0  0  0  0  0  0  0  0  0  0
   -1.2857   -2.3478    2.5314 H   0  0  0  0  0  0  0  0  0  0  0  0
    2.2959   -1.2461   -0.8064 H   0  0  0  0  0  0  0  0  0  0  0  0
    2.0381    0.0300   -1.9535 H   0  0  0  0  0  0  0  0  0  0  0  0
    0.0804    1.4582   -1.8272 H   0  0  0  0  0  0  0  0  0  0  0  0
    2.5326    0.6688    1.0138 H   0  0  0  0  0  0  0  0  0  0  0  0
    3.1603    2.2114   -1.4073 H   0  0  0  0  0  0  0  0  0  0  0  0
    3.2854    2.7038    0.1400 H   0  0  0  0  0  0  0  0  0  0  0  0
  1 10  1  0
  2 17  1  0
  3 18  1  0
  4  5  2  0
  4  6  1  0
  5  7  1  0
  6 12  2  0
  7 13  2  0
  8 10  1  0
  8 11  1  0
  9 11  1  0
  9 14  2  0
 10 16  1  0
 11 15  2  0
 12 13  1  0
 12 14  1  0
 13 15  1  0
 14 17  1  0
 15 18  1  0
  1 19  1  0
  1 20  1  0
  1 21  1  0
  2 22  1  0
  2 23  1  0
  2 24  1  0
  3 25  1  0
  3 26  1  0
  3 27  1  0
  4 28  1  0
  5 29  1  0
  6 30  1  0
  7 31  1  0
  8 32  1  0
  8 33  1  0
  9 34  1  0
 10 35  1  0
 16 36  1  0
 16 37  1  0
M  END
