
     RDKit          3D

 41 42  0  0  0  0  0  0  0  0999 V2000
   -3.1370   -2.1002   -1.0087 C   0  0  0  0  0  0  0  0  0  0  0  0
   -3.6812   -0.4385    0.6249 C   0  0  0  0  0  0  0  0  0  0  0  0
   -0.2435    2.9310   -0.7161 C   0  0  0  0  0  0  0  0  0  0  0  0
    0.2873    3.1275    0.6951 C   0  0  0  0  0  0  0  0  0  0  0  0
    3.1080   -0.5490   -1.9472 C   0  0  0  0  0  0  0  0  0  0  0  0
   -0.9157    1.5733   -0.9262 C   0  0  0  0  0  0  0  0  0  0  0  0
    2.2505    0.2358   -1.1680 C   0  0  0  0  0  0  0  0  0  0  0  0
    3.3611   -1.8721   -1.5974 C   0  0  0  0  0  0  0  0  0  0  0  0
    1.2281    1.9985    1.1173 C   0  0  0  0  0  0  0  0  0  0  0  0
    1.8910   -1.6253    0.3084 C   0  0  0  0  0  0  0  0  0  0  0  0
   -1.3630   -0.7838   -0.0472 C   0  0  0  0  0  0  0  0  0  0  0  0
    1.6312   -0.2783   -0.0146 C   0  0  0  0  0  0  0  0  0  0  0  0
   -0.7835    0.6195    0.2750 C   0  0  0  0  0  0  0  0  0  0  0  0
    2.7456   -2.4009   -0.4717 C   0  0  0  0  0  0  0  0  0  0  0  0
    0.6720    0.5681    0.8393 C   0  0  0  0  0  0  0  0  0  0  0  0
   -2.7801   -0.7806   -0.4784 N   0  0  0  0  0  0  0  0  0  0  0  0
    2.9498   -3.6948   -0.0925 O   0  0  0  0  0  0  0  0  0  0  0  0
    0.5707   -0.0430    2.1445 O   0  0  0  0  0  0  0  0  0  0  0  0
   -4.1733   -2.1049   -1.3652 H   0  0  0  0  0  0  0  0  0  0  0  0
   -2.5115   -2.3512   -1.8728 H   0  0  0  0  0  0  0  0  0  0  0  0
   -3.0256   -2.8919   -0.2588 H   0  0  0  0  0  0  0  0  0  0  0  0
   -3.5241    0.5899    0.9635 H   0  0  0  0  0  0  0  0  0  0  0  0
   -4.7258   -0.4878    0.2957 H   0  0  0  0  0  0  0  0  0  0  0  0
   -3.5617   -1.1111    1.4818 H   0  0  0  0  0  0  0  0  0  0  0  0
    0.5787    3.0434   -1.4327 H   0  0  0  0  0  0  0  0  0  0  0  0
   -0.9547    3.7315   -0.9529 H   0  0  0  0  0  0  0  0  0  0  0  0
   -0.5511    3.1913    1.3998 H   0  0  0  0  0  0  0  0  0  0  0  0
    0.8159    4.0858    0.7602 H   0  0  0  0  0  0  0  0  0  0  0  0
    3.5741   -0.1227   -2.8323 H   0  0  0  0  0  0  0  0  0  0  0  0
   -0.5113    1.1084   -1.8335 H   0  0  0  0  0  0  0  0  0  0  0  0
   -1.9789    1.7472   -1.1347 H   0  0  0  0  0  0  0  0  0  0  0  0
    2.0735    1.2593   -1.4872 H   0  0  0  0  0  0  0  0  0  0  0  0
    4.0269   -2.4688   -2.2118 H   0  0  0  0  0  0  0  0  0  0  0  0
    1.4390    2.1278    2.1875 H   0  0  0  0  0  0  0  0  0  0  0  0
    2.1933    2.1594    0.6232 H   0  0  0  0  0  0  0  0  0  0  0  0
    1.4130   -2.0949    1.1658 H   0  0  0  0  0  0  0  0  0  0  0  0
   -1.2385   -1.4503    0.8161 H   0  0  0  0  0  0  0  0  0  0  0  0
   -0.7701   -1.2091   -0.8666 H   0  0  0  0  0  0  0  0  0  0  0  0
   -1.4027    1.0300    1.0850 H   0  0  0  0  0  0  0  0  0  0  0  0
    3.5437   -4.1156   -0.7354 H   0  0  0  0  0  0  0  0  0  0  0  0
    1.4797   -0.1532    2.4754 H   0  0  0  0  0  0  0  0  0  0  0  0
  1 16  1  0
  2 16  1  0
  3  4  1  0
  3  6  1  0
  4  9  1  0
  5  7  2  0
  5  8  1  0
  6 13  1  0
  7 12  1  0
  8 14  2  0
  9 15  1  0
 10 12  2  0
 10 14  1  0
 11 13  1  0
 11 16  1  0
 12 15  1  0
 13 15  1  0
 14 17  1  0
 15 18  1  0
  1 19  1  0
  1 20  1  0
  1 21  1  0
  2 22  1  0
  2 23  1  0
  2 24  1  0
  3 25  1  0
  3 26  1  0
  4 27  1  0
  4 28  1  0
  5 29  1  0
  6 30  1  0
  6 31  1  0
  7 32  1  0
  8 33  1  0
  9 34  1  0
  9 35  1  0
 10 36  1  0
 11 37  1  0
 11 38  1  0
 13 39  1  0
 17 40  1  0
 18 41  1  0
M  END
