
     RDKit          3D

 44 44  0  0  0  0  0  0  0  0999 V2000
    0.5940   -3.0401   -0.5163 C   0  0  0  0  0  0  0  0  0  0  0  0
    4.2098    2.4568   -0.2423 C   0  0  0  0  0  0  0  0  0  0  0  0
    4.1915    1.6324    0.8811 C   0  0  0  0  0  0  0  0  0  0  0  0
    3.7118    1.9889   -1.4570 C   0  0  0  0  0  0  0  0  0  0  0  0
   -2.4302   -0.4122   -0.0153 C   0  0  0  0  0  0  0  0  0  0  0  0
   -3.9361   -0.7083   -0.0040 C   0  0  0  0  0  0  0  0  0  0  0  0
    3.6757    0.3390    0.7898 C   0  0  0  0  0  0  0  0  0  0  0  0
    3.1943    0.6957   -1.5495 C   0  0  0  0  0  0  0  0  0  0  0  0
   -1.9897    0.5404    1.1004 C   0  0  0  0  0  0  0  0  0  0  0  0
   -4.8534    0.5051   -0.1714 C   0  0  0  0  0  0  0  0  0  0  0  0
    2.5938   -1.5354   -0.5200 C   0  0  0  0  0  0  0  0  0  0  0  0
    1.0887   -1.6273   -0.1870 C   0  0  0  0  0  0  0  0  0  0  0  0
    3.1716   -0.1421   -0.4262 C   0  0  0  0  0  0  0  0  0  0  0  0
   -0.4725    0.7741    1.1915 C   0  0  0  0  0  0  0  0  0  0  0  0
    0.2588   -0.4464    1.7518 C   0  0  0  0  0  0  0  0  0  0  0  0
   -4.5917    1.2269   -1.4097 N   0  0  0  0  0  0  0  0  0  0  0  0
    0.0892    1.2852   -0.0630 N   0  0  0  0  0  0  0  0  0  0  0  0
    0.8926   -1.4364    1.2477 N   0  0  0  0  0  0  0  0  0  0  0  0
    0.1829   -0.4823    3.0998 O   0  0  0  0  0  0  0  0  0  0  0  0
    1.1540   -3.7985    0.0427 H   0  0  0  0  0  0  0  0  0  0  0  0
   -0.4625   -3.1574   -0.2556 H   0  0  0  0  0  0  0  0  0  0  0  0
    0.7042   -3.2530   -1.5847 H   0  0  0  0  0  0  0  0  0  0  0  0
    4.6142    3.4630   -0.1720 H   0  0  0  0  0  0  0  0  0  0  0  0
    4.5805    1.9948    1.8289 H   0  0  0  0  0  0  0  0  0  0  0  0
    3.7243    2.6308   -2.3338 H   0  0  0  0  0  0  0  0  0  0  0  0
   -2.1413   -0.0121   -0.9936 H   0  0  0  0  0  0  0  0  0  0  0  0
   -1.9093   -1.3673    0.1003 H   0  0  0  0  0  0  0  0  0  0  0  0
   -4.1924   -1.2090    0.9381 H   0  0  0  0  0  0  0  0  0  0  0  0
   -4.1495   -1.4310   -0.8023 H   0  0  0  0  0  0  0  0  0  0  0  0
    3.6608   -0.2952    1.6737 H   0  0  0  0  0  0  0  0  0  0  0  0
    2.7989    0.3476   -2.5011 H   0  0  0  0  0  0  0  0  0  0  0  0
   -2.4746    1.5136    0.9548 H   0  0  0  0  0  0  0  0  0  0  0  0
   -2.3522    0.1525    2.0610 H   0  0  0  0  0  0  0  0  0  0  0  0
   -4.7457    1.1884    0.6768 H   0  0  0  0  0  0  0  0  0  0  0  0
   -5.8946    0.1631   -0.1732 H   0  0  0  0  0  0  0  0  0  0  0  0
    2.7682   -1.9107   -1.5374 H   0  0  0  0  0  0  0  0  0  0  0  0
    3.1687   -2.2002    0.1392 H   0  0  0  0  0  0  0  0  0  0  0  0
    0.5178   -0.9360   -0.8081 H   0  0  0  0  0  0  0  0  0  0  0  0
   -0.3188    1.5716    1.9320 H   0  0  0  0  0  0  0  0  0  0  0  0
   -4.6862    0.5940   -2.2030 H   0  0  0  0  0  0  0  0  0  0  0  0
   -5.2956    1.9528   -1.5353 H   0  0  0  0  0  0  0  0  0  0  0  0
    1.0737    1.5184    0.0825 H   0  0  0  0  0  0  0  0  0  0  0  0
   -0.3785    2.1536   -0.3158 H   0  0  0  0  0  0  0  0  0  0  0  0
    0.6548   -1.2877    3.3718 H   0  0  0  0  0  0  0  0  0  0  0  0
  1 12  1  0
  2  3  2  0
  2  4  1  0
  3  7  1  0
  4  8  2  0
  5  6  1  0
  5  9  1  0
  6 10  1  0
  7 13  2  0
  8 13  1  0
  9 14  1  0
 10 16  1  0
 11 12  1  0
 11 13  1  0
 12 18  1  0
 14 15  1  0
 14 17  1  0
 15 18  2  3
 15 19  1  0
  1 20  1  0
  1 21  1  0
  1 22  1  0
  2 23  1  0
  3 24  1  0
  4 25  1  0
  5 26  1  0
  5 27  1  0
  6 28  1  0
  6 29  1  0
  7 30  1  0
  8 31  1  0
  9 32  1  0
  9 33  1  0
 10 34  1  0
 10 35  1  0
 11 36  1  0
 11 37  1  0
 12 38  1  0
 14 39  1  0
 16 40  1  0
 16 41  1  0
 17 42  1  0
 17 43  1  0
 19 44  1  0
M  END
