
     RDKit          3D

 41 43  0  0  0  0  0  0  0  0999 V2000
   -0.9053    0.7602    2.6719 C   0  0  0  0  0  0  0  0  0  0  0  0
    4.6121    1.6196   -2.0097 C   0  0  0  0  0  0  0  0  0  0  0  0
   -4.2328    0.4425   -0.6242 C   0  0  0  0  0  0  0  0  0  0  0  0
   -2.5477   -2.5533   -0.0628 C   0  0  0  0  0  0  0  0  0  0  0  0
    1.7636   -2.1769   -0.5481 C   0  0  0  0  0  0  0  0  0  0  0  0
    0.3787   -2.2872   -0.7030 C   0  0  0  0  0  0  0  0  0  0  0  0
   -1.0672    1.9474    0.4329 C   0  0  0  0  0  0  0  0  0  0  0  0
   -2.2325    1.7937   -0.5318 C   0  0  0  0  0  0  0  0  0  0  0  0
    1.4772   -0.1559    0.7823 C   0  0  0  0  0  0  0  0  0  0  0  0
    2.2954   -1.1066    0.1771 C   0  0  0  0  0  0  0  0  0  0  0  0
    0.1041   -0.2868    0.6156 C   0  0  0  0  0  0  0  0  0  0  0  0
   -0.4515   -1.3399   -0.1142 C   0  0  0  0  0  0  0  0  0  0  0  0
   -2.2798   -0.1790    0.7022 C   0  0  0  0  0  0  0  0  0  0  0  0
    4.3493   -0.1130   -0.4135 C   0  0  0  0  0  0  0  0  0  0  0  0
   -0.9856    0.5917    1.1530 C   0  0  0  0  0  0  0  0  0  0  0  0
    3.8054    0.6783   -1.2600 N   0  0  0  0  0  0  0  0  0  0  0  0
   -3.1371    0.9124    0.2062 N   0  0  0  0  0  0  0  0  0  0  0  0
   -1.8535   -1.2811   -0.1942 N   0  0  0  0  0  0  0  0  0  0  0  0
    5.6651   -0.1616   -0.1351 O   0  0  0  0  0  0  0  0  0  0  0  0
    3.6836   -1.0498    0.3538 O   0  0  0  0  0  0  0  0  0  0  0  0
   -0.0098    1.3205    2.9635 H   0  0  0  0  0  0  0  0  0  0  0  0
   -1.7771    1.3008    3.0569 H   0  0  0  0  0  0  0  0  0  0  0  0
   -0.8657   -0.2107    3.1795 H   0  0  0  0  0  0  0  0  0  0  0  0
    5.3462    1.1067   -2.6395 H   0  0  0  0  0  0  0  0  0  0  0  0
    3.9631    2.2009   -2.6721 H   0  0  0  0  0  0  0  0  0  0  0  0
    5.1218    2.3277   -1.3482 H   0  0  0  0  0  0  0  0  0  0  0  0
   -4.8842   -0.2296   -0.0553 H   0  0  0  0  0  0  0  0  0  0  0  0
   -3.8955   -0.0806   -1.5260 H   0  0  0  0  0  0  0  0  0  0  0  0
   -4.8547    1.2873   -0.9407 H   0  0  0  0  0  0  0  0  0  0  0  0
   -2.2800   -3.0628    0.8700 H   0  0  0  0  0  0  0  0  0  0  0  0
   -3.6315   -2.3978   -0.0607 H   0  0  0  0  0  0  0  0  0  0  0  0
   -2.3266   -3.2147   -0.9070 H   0  0  0  0  0  0  0  0  0  0  0  0
    2.4230   -2.9119   -0.9988 H   0  0  0  0  0  0  0  0  0  0  0  0
   -0.0298   -3.0983   -1.2953 H   0  0  0  0  0  0  0  0  0  0  0  0
   -0.1473    2.2246   -0.0931 H   0  0  0  0  0  0  0  0  0  0  0  0
   -1.2946    2.7522    1.1439 H   0  0  0  0  0  0  0  0  0  0  0  0
   -1.8937    1.3465   -1.4751 H   0  0  0  0  0  0  0  0  0  0  0  0
   -2.6930    2.7622   -0.7524 H   0  0  0  0  0  0  0  0  0  0  0  0
    1.9022    0.6600    1.3549 H   0  0  0  0  0  0  0  0  0  0  0  0
   -2.7702   -0.6172    1.5830 H   0  0  0  0  0  0  0  0  0  0  0  0
    6.1563    0.4793   -0.6621 H   0  0  0  0  0  0  0  0  0  0  0  0
  1 15  1  0
  2 16  1  0
  3 17  1  0
  4 18  1  0
  5  6  2  0
  5 10  1  0
  6 12  1  0
  7  8  1  0
  7 15  1  0
  8 17  1  0
  9 10  2  0
  9 11  1  0
 10 20  1  0
 11 12  2  0
 11 15  1  0
 12 18  1  0
 13 15  1  0
 13 17  1  0
 13 18  1  0
 14 16  2  3
 14 19  1  0
 14 20  1  0
  1 21  1  0
  1 22  1  0
  1 23  1  0
  2 24  1  0
  2 25  1  0
  2 26  1  0
  3 27  1  0
  3 28  1  0
  3 29  1  0
  4 30  1  0
  4 31  1  0
  4 32  1  0
  5 33  1  0
  6 34  1  0
  7 35  1  0
  7 36  1  0
  8 37  1  0
  8 38  1  0
  9 39  1  0
 13 40  1  0
 19 41  1  0
M  END
