
     RDKit          3D

 39 40  0  0  0  0  0  0  0  0999 V2000
   -3.1149    2.1637   -1.0764 C   0  0  0  0  0  0  0  0  0  0  0  0
   -3.1401   -1.6632    0.4192 C   0  0  0  0  0  0  0  0  0  0  0  0
   -1.2774   -1.6544   -1.2788 C   0  0  0  0  0  0  0  0  0  0  0  0
   -2.6745    1.5055    0.2278 C   0  0  0  0  0  0  0  0  0  0  0  0
    3.9850   -1.6990    1.1753 C   0  0  0  0  0  0  0  0  0  0  0  0
    4.7406   -1.4816    0.0260 C   0  0  0  0  0  0  0  0  0  0  0  0
    2.8334   -0.9435    1.4252 C   0  0  0  0  0  0  0  0  0  0  0  0
    4.3701   -0.5070   -0.9051 C   0  0  0  0  0  0  0  0  0  0  0  0
    0.2408    1.1331    1.4407 C   0  0  0  0  0  0  0  0  0  0  0  0
   -0.9220    0.1415    1.2304 C   0  0  0  0  0  0  0  0  0  0  0  0
    1.5028    1.6964   -0.7265 C   0  0  0  0  0  0  0  0  0  0  0  0
   -2.3396   -0.8034   -0.5673 C   0  0  0  0  0  0  0  0  0  0  0  0
    1.3464    0.9741    0.4406 C   0  0  0  0  0  0  0  0  0  0  0  0
    2.4375    0.0474    0.5029 C   0  0  0  0  0  0  0  0  0  0  0  0
    3.2159    0.2397   -0.6389 C   0  0  0  0  0  0  0  0  0  0  0  0
    2.6223    1.2432   -1.3676 N   0  0  0  0  0  0  0  0  0  0  0  0
   -1.7183    0.4072    0.0125 N   0  0  0  0  0  0  0  0  0  0  0  0
   -3.7067    3.0591   -0.8584 H   0  0  0  0  0  0  0  0  0  0  0  0
   -2.2498    2.4734   -1.6725 H   0  0  0  0  0  0  0  0  0  0  0  0
   -3.7379    1.5034   -1.6857 H   0  0  0  0  0  0  0  0  0  0  0  0
   -2.5047   -2.1049    1.1936 H   0  0  0  0  0  0  0  0  0  0  0  0
   -3.6290   -2.4889   -0.1100 H   0  0  0  0  0  0  0  0  0  0  0  0
   -3.9266   -1.0833    0.9116 H   0  0  0  0  0  0  0  0  0  0  0  0
   -0.7067   -1.0500   -1.9929 H   0  0  0  0  0  0  0  0  0  0  0  0
   -1.7550   -2.4632   -1.8434 H   0  0  0  0  0  0  0  0  0  0  0  0
   -0.5710   -2.1159   -0.5819 H   0  0  0  0  0  0  0  0  0  0  0  0
   -3.5509    1.1721    0.7951 H   0  0  0  0  0  0  0  0  0  0  0  0
   -2.2112    2.2985    0.8256 H   0  0  0  0  0  0  0  0  0  0  0  0
    4.2900   -2.4626    1.8863 H   0  0  0  0  0  0  0  0  0  0  0  0
    5.6319   -2.0788   -0.1517 H   0  0  0  0  0  0  0  0  0  0  0  0
    2.2512   -1.1227    2.3236 H   0  0  0  0  0  0  0  0  0  0  0  0
    4.9593   -0.3408   -1.8006 H   0  0  0  0  0  0  0  0  0  0  0  0
   -0.1161    2.1692    1.4338 H   0  0  0  0  0  0  0  0  0  0  0  0
    0.6529    0.9709    2.4452 H   0  0  0  0  0  0  0  0  0  0  0  0
   -1.5742    0.1585    2.1136 H   0  0  0  0  0  0  0  0  0  0  0  0
   -0.4827   -0.8621    1.2009 H   0  0  0  0  0  0  0  0  0  0  0  0
    0.8964    2.4810   -1.1588 H   0  0  0  0  0  0  0  0  0  0  0  0
   -3.0321   -0.5006   -1.3606 H   0  0  0  0  0  0  0  0  0  0  0  0
    2.9652    1.5881   -2.2527 H   0  0  0  0  0  0  0  0  0  0  0  0
  1  4  1  0
  2 12  1  0
  3 12  1  0
  4 17  1  0
  5  6  2  0
  5  7  1  0
  6  8  1  0
  7 14  2  0
  8 15  2  0
  9 10  1  0
  9 13  1  0
 10 17  1  0
 11 13  2  0
 11 16  1  0
 12 17  1  0
 13 14  1  0
 14 15  1  0
 15 16  1  0
  1 18  1  0
  1 19  1  0
  1 20  1  0
  2 21  1  0
  2 22  1  0
  2 23  1  0
  3 24  1  0
  3 25  1  0
  3 26  1  0
  4 27  1  0
  4 28  1  0
  5 29  1  0
  6 30  1  0
  7 31  1  0
  8 32  1  0
  9 33  1  0
  9 34  1  0
 10 35  1  0
 10 36  1  0
 11 37  1  0
 12 38  1  0
 16 39  1  0
M  END
