
     RDKit          3D

 40 41  0  0  0  0  0  0  0  0999 V2000
   -2.8926    2.0174    0.4832 C   0  0  0  0  0  0  0  0  0  0  0  0
   -5.0700    0.8312    0.4566 C   0  0  0  0  0  0  0  0  0  0  0  0
   -3.7335   -1.5163   -0.7095 C   0  0  0  0  0  0  0  0  0  0  0  0
    6.3929   -0.0428   -0.2350 C   0  0  0  0  0  0  0  0  0  0  0  0
    2.7985    1.8648    0.9318 C   0  0  0  0  0  0  0  0  0  0  0  0
    1.5907    1.1650    0.8500 C   0  0  0  0  0  0  0  0  0  0  0  0
    4.0019    1.2629    0.5580 C   0  0  0  0  0  0  0  0  0  0  0  0
   -0.8931   -0.9960    0.4210 C   0  0  0  0  0  0  0  0  0  0  0  0
   -1.6176   -0.3458   -0.7736 C   0  0  0  0  0  0  0  0  0  0  0  0
    1.2099   -2.2814   -0.3079 C   0  0  0  0  0  0  0  0  0  0  0  0
   -3.5452    0.6253    0.4750 C   0  0  0  0  0  0  0  0  0  0  0  0
    0.5772   -1.1506    0.1723 C   0  0  0  0  0  0  0  0  0  0  0  0
    1.5949   -0.1635    0.3835 C   0  0  0  0  0  0  0  0  0  0  0  0
    4.0416   -0.0568    0.0901 C   0  0  0  0  0  0  0  0  0  0  0  0
    2.8141   -0.7326    0.0193 C   0  0  0  0  0  0  0  0  0  0  0  0
    2.5490   -2.0178   -0.3955 N   0  0  0  0  0  0  0  0  0  0  0  0
   -3.0871   -0.2012   -0.6657 N   0  0  0  0  0  0  0  0  0  0  0  0
    5.1568   -0.7424   -0.3009 O   0  0  0  0  0  0  0  0  0  0  0  0
   -3.0463    2.5348   -0.4705 H   0  0  0  0  0  0  0  0  0  0  0  0
   -1.8175    1.9636    0.6770 H   0  0  0  0  0  0  0  0  0  0  0  0
   -3.3200    2.6433    1.2748 H   0  0  0  0  0  0  0  0  0  0  0  0
   -5.3787    1.5278    1.2444 H   0  0  0  0  0  0  0  0  0  0  0  0
   -5.6089   -0.1036    0.6404 H   0  0  0  0  0  0  0  0  0  0  0  0
   -5.4051    1.2419   -0.5024 H   0  0  0  0  0  0  0  0  0  0  0  0
   -3.3177   -2.1334   -1.5146 H   0  0  0  0  0  0  0  0  0  0  0  0
   -4.7998   -1.4238   -0.9381 H   0  0  0  0  0  0  0  0  0  0  0  0
   -3.6255   -2.0646    0.2325 H   0  0  0  0  0  0  0  0  0  0  0  0
    7.1789   -0.7203   -0.5825 H   0  0  0  0  0  0  0  0  0  0  0  0
    6.6311    0.2421    0.7951 H   0  0  0  0  0  0  0  0  0  0  0  0
    6.3893    0.8295   -0.8970 H   0  0  0  0  0  0  0  0  0  0  0  0
    2.7981    2.8911    1.2911 H   0  0  0  0  0  0  0  0  0  0  0  0
    0.6628    1.6454    1.1437 H   0  0  0  0  0  0  0  0  0  0  0  0
    4.9065    1.8566    0.6438 H   0  0  0  0  0  0  0  0  0  0  0  0
   -1.3186   -1.9851    0.6287 H   0  0  0  0  0  0  0  0  0  0  0  0
   -1.0361   -0.3984    1.3285 H   0  0  0  0  0  0  0  0  0  0  0  0
   -1.1742    0.6355   -0.9834 H   0  0  0  0  0  0  0  0  0  0  0  0
   -1.3957   -0.9239   -1.6820 H   0  0  0  0  0  0  0  0  0  0  0  0
    0.8201   -3.2487   -0.5952 H   0  0  0  0  0  0  0  0  0  0  0  0
   -3.2941    0.1283    1.4207 H   0  0  0  0  0  0  0  0  0  0  0  0
    3.2630   -2.6574   -0.7161 H   0  0  0  0  0  0  0  0  0  0  0  0
  1 11  1  0
  2 11  1  0
  3 17  1  0
  4 18  1  0
  5  6  2  0
  5  7  1  0
  6 13  1  0
  7 14  2  0
  8  9  1  0
  8 12  1  0
  9 17  1  0
 10 12  2  0
 10 16  1  0
 11 17  1  0
 12 13  1  0
 13 15  2  0
 14 15  1  0
 14 18  1  0
 15 16  1  0
  1 19  1  0
  1 20  1  0
  1 21  1  0
  2 22  1  0
  2 23  1  0
  2 24  1  0
  3 25  1  0
  3 26  1  0
  3 27  1  0
  4 28  1  0
  4 29  1  0
  4 30  1  0
  5 31  1  0
  6 32  1  0
  7 33  1  0
  8 34  1  0
  8 35  1  0
  9 36  1  0
  9 37  1  0
 10 38  1  0
 11 39  1  0
 16 40  1  0
M  END
