
     RDKit          3D

 40 41  0  0  0  0  0  0  0  0999 V2000
   -4.3873    0.5181   -0.3804 C   0  0  0  0  0  0  0  0  0  0  0  0
   -2.5446   -2.7448    0.0068 C   0  0  0  0  0  0  0  0  0  0  0  0
    5.9575   -1.1735    0.3745 C   0  0  0  0  0  0  0  0  0  0  0  0
   -4.6046   -0.6055    0.6174 C   0  0  0  0  0  0  0  0  0  0  0  0
    4.3964    0.9726   -0.6204 C   0  0  0  0  0  0  0  0  0  0  0  0
    3.5879    2.0173   -1.0887 C   0  0  0  0  0  0  0  0  0  0  0  0
   -0.7377    0.4843    0.9444 C   0  0  0  0  0  0  0  0  0  0  0  0
   -3.3794   -0.9814    1.4667 C   0  0  0  0  0  0  0  0  0  0  0  0
   -1.3035   -0.6745    0.1039 C   0  0  0  0  0  0  0  0  0  0  0  0
    2.5067   -0.0485    0.4943 C   0  0  0  0  0  0  0  0  0  0  0  0
    0.0425    2.4607   -0.5062 C   0  0  0  0  0  0  0  0  0  0  0  0
    0.2766    1.2878    0.1857 C   0  0  0  0  0  0  0  0  0  0  0  0
    3.8688   -0.0530    0.1632 C   0  0  0  0  0  0  0  0  0  0  0  0
    1.6696    0.9902    0.0371 C   0  0  0  0  0  0  0  0  0  0  0  0
    2.2323    1.9978   -0.7443 C   0  0  0  0  0  0  0  0  0  0  0  0
    1.2235    2.8777   -1.0581 N   0  0  0  0  0  0  0  0  0  0  0  0
   -2.2054   -1.5844    0.8273 N   0  0  0  0  0  0  0  0  0  0  0  0
    4.5682   -1.1166    0.6693 O   0  0  0  0  0  0  0  0  0  0  0  0
   -3.8701    1.3661    0.0781 H   0  0  0  0  0  0  0  0  0  0  0  0
   -5.3526    0.8752   -0.7548 H   0  0  0  0  0  0  0  0  0  0  0  0
   -3.8169    0.1778   -1.2478 H   0  0  0  0  0  0  0  0  0  0  0  0
   -3.0710   -2.4651   -0.9122 H   0  0  0  0  0  0  0  0  0  0  0  0
   -1.6386   -3.2929   -0.2758 H   0  0  0  0  0  0  0  0  0  0  0  0
   -3.1698   -3.4496    0.5662 H   0  0  0  0  0  0  0  0  0  0  0  0
    6.1292   -1.2618   -0.7034 H   0  0  0  0  0  0  0  0  0  0  0  0
    6.4856   -0.3091    0.7905 H   0  0  0  0  0  0  0  0  0  0  0  0
    6.3636   -2.0714    0.8502 H   0  0  0  0  0  0  0  0  0  0  0  0
   -4.9998   -1.4855    0.0974 H   0  0  0  0  0  0  0  0  0  0  0  0
   -5.3960   -0.2896    1.3096 H   0  0  0  0  0  0  0  0  0  0  0  0
    5.4469    0.9944   -0.8919 H   0  0  0  0  0  0  0  0  0  0  0  0
    4.0069    2.8116   -1.6978 H   0  0  0  0  0  0  0  0  0  0  0  0
   -1.5421    1.1589    1.2594 H   0  0  0  0  0  0  0  0  0  0  0  0
   -0.2777    0.0914    1.8597 H   0  0  0  0  0  0  0  0  0  0  0  0
   -3.7317   -1.7089    2.2115 H   0  0  0  0  0  0  0  0  0  0  0  0
   -3.0851   -0.1175    2.0727 H   0  0  0  0  0  0  0  0  0  0  0  0
   -0.4479   -1.2653   -0.2521 H   0  0  0  0  0  0  0  0  0  0  0  0
   -1.7776   -0.2778   -0.7993 H   0  0  0  0  0  0  0  0  0  0  0  0
    2.0982   -0.8490    1.1047 H   0  0  0  0  0  0  0  0  0  0  0  0
   -0.8646    3.0328   -0.6495 H   0  0  0  0  0  0  0  0  0  0  0  0
    1.3434    3.7111   -1.6164 H   0  0  0  0  0  0  0  0  0  0  0  0
  1  4  1  0
  2 17  1  0
  3 18  1  0
  4  8  1  0
  5  6  2  0
  5 13  1  0
  6 15  1  0
  7  9  1  0
  7 12  1  0
  8 17  1  0
  9 17  1  0
 10 13  2  0
 10 14  1  0
 11 12  2  0
 11 16  1  0
 12 14  1  0
 13 18  1  0
 14 15  2  0
 15 16  1  0
  1 19  1  0
  1 20  1  0
  1 21  1  0
  2 22  1  0
  2 23  1  0
  2 24  1  0
  3 25  1  0
  3 26  1  0
  3 27  1  0
  4 28  1  0
  4 29  1  0
  5 30  1  0
  6 31  1  0
  7 32  1  0
  7 33  1  0
  8 34  1  0
  8 35  1  0
  9 36  1  0
  9 37  1  0
 10 38  1  0
 11 39  1  0
 16 40  1  0
M  END
