
     RDKit          3D

 40 41  0  0  0  0  0  0  0  0999 V2000
    1.9926    0.5512    3.1448 C   0  0  0  0  0  0  0  0  0  0  0  0
    1.7334    1.9927    1.2512 C   0  0  0  0  0  0  0  0  0  0  0  0
    1.1177   -3.0633   -0.6992 C   0  0  0  0  0  0  0  0  0  0  0  0
   -0.3023   -3.1623   -0.1446 C   0  0  0  0  0  0  0  0  0  0  0  0
   -2.1952    1.8194   -2.5751 C   0  0  0  0  0  0  0  0  0  0  0  0
    1.4705   -1.6764   -1.2341 C   0  0  0  0  0  0  0  0  0  0  0  0
   -1.4949    0.7205   -2.0714 C   0  0  0  0  0  0  0  0  0  0  0  0
   -2.7718    2.7391   -1.7022 C   0  0  0  0  0  0  0  0  0  0  0  0
   -1.1815   -2.0012   -0.5926 C   0  0  0  0  0  0  0  0  0  0  0  0
   -1.9485    1.4630    0.1816 C   0  0  0  0  0  0  0  0  0  0  0  0
    1.7377   -0.4274    0.9581 C   0  0  0  0  0  0  0  0  0  0  0  0
   -1.3697    0.5233   -0.6867 C   0  0  0  0  0  0  0  0  0  0  0  0
    0.9349   -0.5204   -0.3684 C   0  0  0  0  0  0  0  0  0  0  0  0
   -2.6414    2.5568   -0.3321 C   0  0  0  0  0  0  0  0  0  0  0  0
   -0.5975   -0.6567   -0.1103 C   0  0  0  0  0  0  0  0  0  0  0  0
    1.3584    0.7002    1.8317 N   0  0  0  0  0  0  0  0  0  0  0  0
   -3.2087    3.4852    0.4910 O   0  0  0  0  0  0  0  0  0  0  0  0
    1.6852    1.3613    3.8157 H   0  0  0  0  0  0  0  0  0  0  0  0
    3.0867    0.5531    3.0785 H   0  0  0  0  0  0  0  0  0  0  0  0
    1.6763   -0.3831    3.6220 H   0  0  0  0  0  0  0  0  0  0  0  0
    1.4633    2.8095    1.9304 H   0  0  0  0  0  0  0  0  0  0  0  0
    2.8087    2.0579    1.0492 H   0  0  0  0  0  0  0  0  0  0  0  0
    1.1935    2.1877    0.3203 H   0  0  0  0  0  0  0  0  0  0  0  0
    1.8287   -3.3572    0.0823 H   0  0  0  0  0  0  0  0  0  0  0  0
    1.2459   -3.7919   -1.5092 H   0  0  0  0  0  0  0  0  0  0  0  0
   -0.7519   -4.1141   -0.4502 H   0  0  0  0  0  0  0  0  0  0  0  0
   -0.2617   -3.1807    0.9518 H   0  0  0  0  0  0  0  0  0  0  0  0
   -2.2875    1.9600   -3.6485 H   0  0  0  0  0  0  0  0  0  0  0  0
    2.5581   -1.5959   -1.3514 H   0  0  0  0  0  0  0  0  0  0  0  0
    1.0548   -1.5750   -2.2455 H   0  0  0  0  0  0  0  0  0  0  0  0
   -1.0416    0.0231   -2.7717 H   0  0  0  0  0  0  0  0  0  0  0  0
   -3.3153    3.5964   -2.0878 H   0  0  0  0  0  0  0  0  0  0  0  0
   -1.2863   -2.0328   -1.6837 H   0  0  0  0  0  0  0  0  0  0  0  0
   -2.1930   -2.1285   -0.1863 H   0  0  0  0  0  0  0  0  0  0  0  0
   -1.8401    1.3362    1.2555 H   0  0  0  0  0  0  0  0  0  0  0  0
    2.8119   -0.3819    0.7329 H   0  0  0  0  0  0  0  0  0  0  0  0
    1.5776   -1.3620    1.5113 H   0  0  0  0  0  0  0  0  0  0  0  0
    1.1409    0.3951   -0.9374 H   0  0  0  0  0  0  0  0  0  0  0  0
   -0.7655   -0.6496    0.9757 H   0  0  0  0  0  0  0  0  0  0  0  0
   -3.0226    3.2285    1.4091 H   0  0  0  0  0  0  0  0  0  0  0  0
  1 16  1  0
  2 16  1  0
  3  4  1  0
  3  6  1  0
  4  9  1  0
  5  7  2  0
  5  8  1  0
  6 13  1  0
  7 12  1  0
  8 14  2  0
  9 15  1  0
 10 12  2  0
 10 14  1  0
 11 13  1  0
 11 16  1  0
 12 15  1  0
 13 15  1  0
 14 17  1  0
  1 18  1  0
  1 19  1  0
  1 20  1  0
  2 21  1  0
  2 22  1  0
  2 23  1  0
  3 24  1  0
  3 25  1  0
  4 26  1  0
  4 27  1  0
  5 28  1  0
  6 29  1  0
  6 30  1  0
  7 31  1  0
  8 32  1  0
  9 33  1  0
  9 34  1  0
 10 35  1  0
 11 36  1  0
 11 37  1  0
 13 38  1  0
 15 39  1  0
 17 40  1  0
M  END
