
     RDKit          3D

 40 40  0  0  0  0  0  0  0  0999 V2000
    4.7075    0.3507   -1.4954 C   0  0  0  0  0  0  0  0  0  0  0  0
   -1.6722   -4.0362   -1.1961 C   0  0  0  0  0  0  0  0  0  0  0  0
    3.8966   -0.5644   -0.5917 C   0  0  0  0  0  0  0  0  0  0  0  0
   -1.2908   -2.8330   -0.3440 C   0  0  0  0  0  0  0  0  0  0  0  0
    2.4513   -0.0828   -0.4586 C   0  0  0  0  0  0  0  0  0  0  0  0
   -2.3177    4.1966    1.4043 C   0  0  0  0  0  0  0  0  0  0  0  0
    1.6397   -1.0105    0.4489 C   0  0  0  0  0  0  0  0  0  0  0  0
   -3.3186    3.2619    1.6622 C   0  0  0  0  0  0  0  0  0  0  0  0
   -1.2245    3.8480    0.6119 C   0  0  0  0  0  0  0  0  0  0  0  0
   -3.2228    1.9742    1.1324 C   0  0  0  0  0  0  0  0  0  0  0  0
   -1.1248    2.5599    0.0792 C   0  0  0  0  0  0  0  0  0  0  0  0
    0.2179   -0.4996    0.7213 C   0  0  0  0  0  0  0  0  0  0  0  0
   -2.1192    1.6116    0.3481 C   0  0  0  0  0  0  0  0  0  0  0  0
   -0.6977   -0.4238   -0.5173 C   0  0  0  0  0  0  0  0  0  0  0  0
   -2.0703    0.2228   -0.1983 C   0  0  0  0  0  0  0  0  0  0  0  0
   -0.8956   -1.7225   -1.2154 N   0  0  0  0  0  0  0  0  0  0  0  0
   -3.1419   -0.3489   -0.4109 O   0  0  0  0  0  0  0  0  0  0  0  0
    5.7372   -0.0115   -1.5760 H   0  0  0  0  0  0  0  0  0  0  0  0
    4.2802    0.3865   -2.5027 H   0  0  0  0  0  0  0  0  0  0  0  0
    4.7360    1.3701   -1.0975 H   0  0  0  0  0  0  0  0  0  0  0  0
   -1.9494   -4.8790   -0.5546 H   0  0  0  0  0  0  0  0  0  0  0  0
   -2.5268   -3.8105   -1.8428 H   0  0  0  0  0  0  0  0  0  0  0  0
   -0.8364   -4.3549   -1.8283 H   0  0  0  0  0  0  0  0  0  0  0  0
    4.3692   -0.6035    0.3966 H   0  0  0  0  0  0  0  0  0  0  0  0
    3.9139   -1.5814   -1.0006 H   0  0  0  0  0  0  0  0  0  0  0  0
   -2.1424   -2.5695    0.2913 H   0  0  0  0  0  0  0  0  0  0  0  0
   -0.4623   -3.1279    0.3071 H   0  0  0  0  0  0  0  0  0  0  0  0
    2.4398    0.9349   -0.0501 H   0  0  0  0  0  0  0  0  0  0  0  0
    1.9969   -0.0389   -1.4545 H   0  0  0  0  0  0  0  0  0  0  0  0
   -2.3940    5.2008    1.8147 H   0  0  0  0  0  0  0  0  0  0  0  0
    1.6113   -2.0164    0.0159 H   0  0  0  0  0  0  0  0  0  0  0  0
    2.1542   -1.1036    1.4137 H   0  0  0  0  0  0  0  0  0  0  0  0
   -4.1765    3.5354    2.2717 H   0  0  0  0  0  0  0  0  0  0  0  0
   -0.4515    4.5842    0.4031 H   0  0  0  0  0  0  0  0  0  0  0  0
   -4.0134    1.2532    1.3331 H   0  0  0  0  0  0  0  0  0  0  0  0
   -0.2704    2.3288   -0.5498 H   0  0  0  0  0  0  0  0  0  0  0  0
   -0.2462   -1.1321    1.4888 H   0  0  0  0  0  0  0  0  0  0  0  0
    0.3028    0.4868    1.1910 H   0  0  0  0  0  0  0  0  0  0  0  0
   -0.2376    0.2245   -1.2707 H   0  0  0  0  0  0  0  0  0  0  0  0
   -1.6517   -1.5798   -1.8922 H   0  0  0  0  0  0  0  0  0  0  0  0
  1  3  1  0
  2  4  1  0
  3  5  1  0
  4 16  1  0
  5  7  1  0
  6  8  2  0
  6  9  1  0
  7 12  1  0
  8 10  1  0
  9 11  2  0
 10 13  2  0
 11 13  1  0
 12 14  1  0
 13 15  1  0
 14 15  1  0
 14 16  1  0
 15 17  2  0
  1 18  1  0
  1 19  1  0
  1 20  1  0
  2 21  1  0
  2 22  1  0
  2 23  1  0
  3 24  1  0
  3 25  1  0
  4 26  1  0
  4 27  1  0
  5 28  1  0
  5 29  1  0
  6 30  1  0
  7 31  1  0
  7 32  1  0
  8 33  1  0
  9 34  1  0
 10 35  1  0
 11 36  1  0
 12 37  1  0
 12 38  1  0
 14 39  1  0
 16 40  1  0
M  END
