
     RDKit          3D

 35 38  0  0  0  0  0  0  0  0999 V2000
    3.6036    1.4276    1.9899 C   0  0  0  0  0  0  0  0  0  0  0  0
    2.7290    0.3625    2.6344 C   0  0  0  0  0  0  0  0  0  0  0  0
   -3.1996    2.8629   -0.2857 C   0  0  0  0  0  0  0  0  0  0  0  0
   -2.3792    3.7332   -1.0019 C   0  0  0  0  0  0  0  0  0  0  0  0
   -2.8323    1.5257   -0.1345 C   0  0  0  0  0  0  0  0  0  0  0  0
   -1.1955    3.2660   -1.5780 C   0  0  0  0  0  0  0  0  0  0  0  0
    0.5560    0.1653    1.2360 C   0  0  0  0  0  0  0  0  0  0  0  0
   -1.9679   -2.6760   -0.7195 C   0  0  0  0  0  0  0  0  0  0  0  0
    1.3843   -3.7349   -1.4266 C   0  0  0  0  0  0  0  0  0  0  0  0
    1.8034   -0.2699    1.6386 C   0  0  0  0  0  0  0  0  0  0  0  0
   -1.6329    1.0587   -0.6931 C   0  0  0  0  0  0  0  0  0  0  0  0
   -0.0515   -0.6769    0.2328 C   0  0  0  0  0  0  0  0  0  0  0  0
   -0.8201    1.9267   -1.4324 C   0  0  0  0  0  0  0  0  0  0  0  0
   -0.7206   -3.2337   -1.2891 C   0  0  0  0  0  0  0  0  0  0  0  0
   -1.2966   -0.3735   -0.4836 C   0  0  0  0  0  0  0  0  0  0  0  0
    0.7791   -1.7536   -0.0136 C   0  0  0  0  0  0  0  0  0  0  0  0
    0.6258    1.4109   -2.2237 Cl  0  0  0  0  0  0  0  0  0  0  0  0
   -2.1283   -1.2453   -0.9325 N   0  0  0  0  0  0  0  0  0  0  0  0
    0.7290   -4.5790   -2.1895 N   0  0  0  0  0  0  0  0  0  0  0  0
   -0.6021   -4.2634   -2.1029 N   0  0  0  0  0  0  0  0  0  0  0  0
    0.5235   -2.8256   -0.8623 N   0  0  0  0  0  0  0  0  0  0  0  0
    2.2535   -1.6981    0.8178 S   0  0  0  0  0  0  0  0  0  0  0  0
    4.2586    1.8837    2.7389 H   0  0  0  0  0  0  0  0  0  0  0  0
    2.9968    2.2215    1.5411 H   0  0  0  0  0  0  0  0  0  0  0  0
    4.2342    1.0015    1.2022 H   0  0  0  0  0  0  0  0  0  0  0  0
    3.3636   -0.3952    3.1094 H   0  0  0  0  0  0  0  0  0  0  0  0
    2.1372    0.8195    3.4369 H   0  0  0  0  0  0  0  0  0  0  0  0
   -4.1296    3.2241    0.1481 H   0  0  0  0  0  0  0  0  0  0  0  0
   -2.6685    4.7747   -1.1254 H   0  0  0  0  0  0  0  0  0  0  0  0
   -3.4818    0.8473    0.4151 H   0  0  0  0  0  0  0  0  0  0  0  0
   -0.5757    3.9513   -2.1521 H   0  0  0  0  0  0  0  0  0  0  0  0
    0.1087    1.0749    1.6223 H   0  0  0  0  0  0  0  0  0  0  0  0
   -2.8212   -3.1798   -1.1885 H   0  0  0  0  0  0  0  0  0  0  0  0
   -2.0371   -2.9090    0.3505 H   0  0  0  0  0  0  0  0  0  0  0  0
    2.4542   -3.7244   -1.2791 H   0  0  0  0  0  0  0  0  0  0  0  0
  1  2  1  0
  2 10  1  0
  3  4  2  0
  3  5  1  0
  4  6  1  0
  5 11  2  0
  6 13  2  0
  7 10  2  0
  7 12  1  0
  8 14  1  0
  8 18  1  0
  9 19  2  0
  9 21  1  0
 10 22  1  0
 11 13  1  0
 11 15  1  0
 12 15  1  0
 12 16  2  0
 13 17  1  0
 14 20  2  0
 14 21  1  0
 15 18  2  0
 16 21  1  0
 16 22  1  0
 19 20  1  0
  1 23  1  0
  1 24  1  0
  1 25  1  0
  2 26  1  0
  2 27  1  0
  3 28  1  0
  4 29  1  0
  5 30  1  0
  6 31  1  0
  7 32  1  0
  8 33  1  0
  8 34  1  0
  9 35  1  0
M  END
