
     RDKit          3D

 33 35  0  0  0  0  0  0  0  0999 V2000
   -3.1651    0.8464   -1.8454 C   0  0  0  0  0  0  0  0  0  0  0  0
    4.5861    0.0346   -0.3002 C   0  0  0  0  0  0  0  0  0  0  0  0
    4.1771    0.2372    1.0173 C   0  0  0  0  0  0  0  0  0  0  0  0
    3.6431    0.0309   -1.3276 C   0  0  0  0  0  0  0  0  0  0  0  0
   -2.0683   -2.7733    0.1155 C   0  0  0  0  0  0  0  0  0  0  0  0
   -2.5083   -1.5376   -0.3683 C   0  0  0  0  0  0  0  0  0  0  0  0
   -0.0780   -1.7201    0.9672 C   0  0  0  0  0  0  0  0  0  0  0  0
   -1.2884    2.1419    1.2126 C   0  0  0  0  0  0  0  0  0  0  0  0
   -0.8583   -2.8567    0.7881 C   0  0  0  0  0  0  0  0  0  0  0  0
   -0.5112   -0.4752    0.4727 C   0  0  0  0  0  0  0  0  0  0  0  0
    2.8245    0.4378    1.3121 C   0  0  0  0  0  0  0  0  0  0  0  0
    2.2884    0.2313   -1.0422 C   0  0  0  0  0  0  0  0  0  0  0  0
   -1.7546   -0.3606   -0.1861 C   0  0  0  0  0  0  0  0  0  0  0  0
   -2.0821    2.1188   -0.0827 C   0  0  0  0  0  0  0  0  0  0  0  0
    1.8726    0.4310    0.2819 C   0  0  0  0  0  0  0  0  0  0  0  0
    0.4372    0.6714    0.5881 C   0  0  0  0  0  0  0  0  0  0  0  0
   -0.3154   -4.3721    1.3917 Cl  0  0  0  0  0  0  0  0  0  0  0  0
    2.3926    0.6260    2.9759 Cl  0  0  0  0  0  0  0  0  0  0  0  0
    1.1882    0.2316   -2.3756 Cl  0  0  0  0  0  0  0  0  0  0  0  0
    0.1157    1.8737    0.9222 N   0  0  0  0  0  0  0  0  0  0  0  0
   -2.2725    0.8745   -0.6932 N   0  0  0  0  0  0  0  0  0  0  0  0
   -2.5874    3.1557   -0.5233 O   0  0  0  0  0  0  0  0  0  0  0  0
   -3.1479    1.8014   -2.3800 H   0  0  0  0  0  0  0  0  0  0  0  0
   -2.8543    0.0717   -2.5537 H   0  0  0  0  0  0  0  0  0  0  0  0
   -4.1877    0.6646   -1.5004 H   0  0  0  0  0  0  0  0  0  0  0  0
    5.6395   -0.1167   -0.5265 H   0  0  0  0  0  0  0  0  0  0  0  0
    4.9187    0.2375    1.8136 H   0  0  0  0  0  0  0  0  0  0  0  0
    3.9722   -0.1205   -2.3537 H   0  0  0  0  0  0  0  0  0  0  0  0
   -2.6822   -3.6589   -0.0300 H   0  0  0  0  0  0  0  0  0  0  0  0
   -3.4773   -1.5142   -0.8616 H   0  0  0  0  0  0  0  0  0  0  0  0
    0.8666   -1.8140    1.4960 H   0  0  0  0  0  0  0  0  0  0  0  0
   -1.3678    3.1463    1.6433 H   0  0  0  0  0  0  0  0  0  0  0  0
   -1.7158    1.4554    1.9522 H   0  0  0  0  0  0  0  0  0  0  0  0
  1 21  1  0
  2  3  2  0
  2  4  1  0
  3 11  1  0
  4 12  2  0
  5  6  2  0
  5  9  1  0
  6 13  1  0
  7  9  2  0
  7 10  1  0
  8 14  1  0
  8 20  1  0
  9 17  1  0
 10 13  2  0
 10 16  1  0
 11 15  2  0
 11 18  1  0
 12 15  1  0
 12 19  1  0
 13 21  1  0
 14 21  1  0
 14 22  2  0
 15 16  1  0
 16 20  2  0
  1 23  1  0
  1 24  1  0
  1 25  1  0
  2 26  1  0
  3 27  1  0
  4 28  1  0
  5 29  1  0
  6 30  1  0
  7 31  1  0
  8 32  1  0
  8 33  1  0
M  END
