
     RDKit          3D

 33 35  0  0  0  0  0  0  0  0999 V2000
   -3.3747    0.2052   -1.6906 C   0  0  0  0  0  0  0  0  0  0  0  0
    2.1866    0.7088   -0.7632 C   0  0  0  0  0  0  0  0  0  0  0  0
    2.8358   -1.5122   -0.0321 C   0  0  0  0  0  0  0  0  0  0  0  0
   -1.8751    2.3998    1.6578 C   0  0  0  0  0  0  0  0  0  0  0  0
    3.5172    0.9852   -1.0860 C   0  0  0  0  0  0  0  0  0  0  0  0
    4.1640   -1.2310   -0.3567 C   0  0  0  0  0  0  0  0  0  0  0  0
   -2.4278    1.5838    0.6650 C   0  0  0  0  0  0  0  0  0  0  0  0
    0.0903    1.0104    1.6984 C   0  0  0  0  0  0  0  0  0  0  0  0
   -1.3528   -2.4166    0.2105 C   0  0  0  0  0  0  0  0  0  0  0  0
    1.8441   -0.5384   -0.2202 C   0  0  0  0  0  0  0  0  0  0  0  0
   -0.6236    2.1016    2.1788 C   0  0  0  0  0  0  0  0  0  0  0  0
    4.4924    0.0155   -0.8770 C   0  0  0  0  0  0  0  0  0  0  0  0
   -0.4518    0.2033    0.6806 C   0  0  0  0  0  0  0  0  0  0  0  0
   -1.7438    0.4541    0.1755 C   0  0  0  0  0  0  0  0  0  0  0  0
   -2.2394   -1.7706   -0.8454 C   0  0  0  0  0  0  0  0  0  0  0  0
    0.4253   -0.8710    0.1302 C   0  0  0  0  0  0  0  0  0  0  0  0
    0.0511    3.0930    3.4100 Cl  0  0  0  0  0  0  0  0  0  0  0  0
    5.7664    0.2855   -1.1889 F   0  0  0  0  0  0  0  0  0  0  0  0
    0.0420   -2.0872   -0.0647 N   0  0  0  0  0  0  0  0  0  0  0  0
   -2.3810   -0.3778   -0.7983 N   0  0  0  0  0  0  0  0  0  0  0  0
   -2.8539   -2.4686   -1.6575 O   0  0  0  0  0  0  0  0  0  0  0  0
   -4.3466    0.2118   -1.1874 H   0  0  0  0  0  0  0  0  0  0  0  0
   -3.0837    1.2204   -1.9787 H   0  0  0  0  0  0  0  0  0  0  0  0
   -3.4676   -0.3816   -2.6099 H   0  0  0  0  0  0  0  0  0  0  0  0
    1.4312    1.4650   -0.9585 H   0  0  0  0  0  0  0  0  0  0  0  0
    2.5750   -2.4913    0.3647 H   0  0  0  0  0  0  0  0  0  0  0  0
   -2.4374    3.2541    2.0278 H   0  0  0  0  0  0  0  0  0  0  0  0
    3.7990    1.9452   -1.5077 H   0  0  0  0  0  0  0  0  0  0  0  0
    4.9392   -1.9770   -0.2132 H   0  0  0  0  0  0  0  0  0  0  0  0
   -3.4284    1.8310    0.3178 H   0  0  0  0  0  0  0  0  0  0  0  0
    1.0733    0.7932    2.1112 H   0  0  0  0  0  0  0  0  0  0  0  0
   -1.4732   -3.5032    0.1358 H   0  0  0  0  0  0  0  0  0  0  0  0
   -1.6721   -2.1404    1.2217 H   0  0  0  0  0  0  0  0  0  0  0  0
  1 20  1  0
  2  5  2  0
  2 10  1  0
  3  6  1  0
  3 10  2  0
  4  7  2  0
  4 11  1  0
  5 12  1  0
  6 12  2  0
  7 14  1  0
  8 11  2  0
  8 13  1  0
  9 15  1  0
  9 19  1  0
 10 16  1  0
 11 17  1  0
 12 18  1  0
 13 14  2  0
 13 16  1  0
 14 20  1  0
 15 20  1  0
 15 21  2  0
 16 19  2  0
  1 22  1  0
  1 23  1  0
  1 24  1  0
  2 25  1  0
  3 26  1  0
  4 27  1  0
  5 28  1  0
  6 29  1  0
  7 30  1  0
  8 31  1  0
  9 32  1  0
  9 33  1  0
M  END
