
     RDKit          3D

 33 35  0  0  0  0  0  0  0  0999 V2000
   -2.5310   -2.6586    1.0724 C   0  0  0  0  0  0  0  0  0  0  0  0
    4.1890   -1.1068   -1.1718 C   0  0  0  0  0  0  0  0  0  0  0  0
    3.4759   -0.0345   -1.7079 C   0  0  0  0  0  0  0  0  0  0  0  0
    3.5874   -1.9500   -0.2381 C   0  0  0  0  0  0  0  0  0  0  0  0
    2.1601    0.2031   -1.3048 C   0  0  0  0  0  0  0  0  0  0  0  0
    2.2726   -1.7165    0.1680 C   0  0  0  0  0  0  0  0  0  0  0  0
   -1.1234    3.6666    0.5902 C   0  0  0  0  0  0  0  0  0  0  0  0
   -1.9614    2.7539   -0.0544 C   0  0  0  0  0  0  0  0  0  0  0  0
    0.5072    1.9180    0.9248 C   0  0  0  0  0  0  0  0  0  0  0  0
   -1.9774   -1.2812    0.7279 C   0  0  0  0  0  0  0  0  0  0  0  0
    1.5594   -0.6300   -0.3523 C   0  0  0  0  0  0  0  0  0  0  0  0
    0.1050    3.2413    1.0830 C   0  0  0  0  0  0  0  0  0  0  0  0
   -0.3277    1.0055    0.2566 C   0  0  0  0  0  0  0  0  0  0  0  0
   -1.5894    1.4117   -0.2165 C   0  0  0  0  0  0  0  0  0  0  0  0
    0.1500   -0.4014    0.0997 C   0  0  0  0  0  0  0  0  0  0  0  0
   -2.7008   -0.6157   -0.4320 C   0  0  0  0  0  0  0  0  0  0  0  0
    1.1348    4.3568    1.8906 Cl  0  0  0  0  0  0  0  0  0  0  0  0
   -0.5698   -1.4487    0.3402 N   0  0  0  0  0  0  0  0  0  0  0  0
   -2.5190    0.5856   -0.8717 N   0  0  0  0  0  0  0  0  0  0  0  0
   -3.6179   -1.3493   -1.0748 O   0  0  0  0  0  0  0  0  0  0  0  0
   -2.4409   -3.3517    0.2282 H   0  0  0  0  0  0  0  0  0  0  0  0
   -3.5889   -2.5987    1.3490 H   0  0  0  0  0  0  0  0  0  0  0  0
   -1.9824   -3.0949    1.9143 H   0  0  0  0  0  0  0  0  0  0  0  0
    5.2118   -1.2929   -1.4906 H   0  0  0  0  0  0  0  0  0  0  0  0
    3.9425    0.6109   -2.4481 H   0  0  0  0  0  0  0  0  0  0  0  0
    4.1386   -2.7936    0.1697 H   0  0  0  0  0  0  0  0  0  0  0  0
    1.6130    1.0267   -1.7553 H   0  0  0  0  0  0  0  0  0  0  0  0
    1.8056   -2.3833    0.8894 H   0  0  0  0  0  0  0  0  0  0  0  0
   -1.4402    4.6998    0.7068 H   0  0  0  0  0  0  0  0  0  0  0  0
   -2.9255    3.0879   -0.4332 H   0  0  0  0  0  0  0  0  0  0  0  0
    1.4657    1.5986    1.3273 H   0  0  0  0  0  0  0  0  0  0  0  0
   -2.0693   -0.6511    1.6212 H   0  0  0  0  0  0  0  0  0  0  0  0
   -3.9537   -0.8075   -1.8077 H   0  0  0  0  0  0  0  0  0  0  0  0
  1 10  1  0
  2  3  2  0
  2  4  1  0
  3  5  1  0
  4  6  2  0
  5 11  2  0
  6 11  1  0
  7  8  2  0
  7 12  1  0
  8 14  1  0
  9 12  2  0
  9 13  1  0
 10 16  1  0
 10 18  1  0
 11 15  1  0
 12 17  1  0
 13 14  2  0
 13 15  1  0
 14 19  1  0
 15 18  2  0
 16 19  2  0
 16 20  1  0
  1 21  1  0
  1 22  1  0
  1 23  1  0
  2 24  1  0
  3 25  1  0
  4 26  1  0
  5 27  1  0
  6 28  1  0
  7 29  1  0
  8 30  1  0
  9 31  1  0
 10 32  1  0
 20 33  1  0
M  END
