
     RDKit          3D

 35 37  0  0  0  0  0  0  0  0999 V2000
   -3.7652   -2.6350   -0.7976 C   0  0  0  0  0  0  0  0  0  0  0  0
    4.1548   -0.2185   -1.9272 C   0  0  0  0  0  0  0  0  0  0  0  0
    3.9511   -1.1698   -0.9269 C   0  0  0  0  0  0  0  0  0  0  0  0
    3.1304    0.6627   -2.2752 C   0  0  0  0  0  0  0  0  0  0  0  0
    2.7229   -1.2405   -0.2687 C   0  0  0  0  0  0  0  0  0  0  0  0
    1.8995    0.5962   -1.6215 C   0  0  0  0  0  0  0  0  0  0  0  0
   -0.7343    3.3377    1.9171 C   0  0  0  0  0  0  0  0  0  0  0  0
   -1.7032    2.5800    1.2559 C   0  0  0  0  0  0  0  0  0  0  0  0
    0.9027    1.6280    1.4537 C   0  0  0  0  0  0  0  0  0  0  0  0
   -1.6088   -1.6077    0.8190 C   0  0  0  0  0  0  0  0  0  0  0  0
    1.6974   -0.3583   -0.6194 C   0  0  0  0  0  0  0  0  0  0  0  0
    0.5640    2.8546    2.0177 C   0  0  0  0  0  0  0  0  0  0  0  0
   -0.0670    0.8649    0.7794 C   0  0  0  0  0  0  0  0  0  0  0  0
   -1.3927    1.3352    0.6782 C   0  0  0  0  0  0  0  0  0  0  0  0
   -2.5839   -0.7537    0.0475 C   0  0  0  0  0  0  0  0  0  0  0  0
    0.3994   -0.3834    0.1037 C   0  0  0  0  0  0  0  0  0  0  0  0
    1.7587    3.7797    2.8385 Cl  0  0  0  0  0  0  0  0  0  0  0  0
   -3.5770   -1.1991   -0.6566 N   0  0  0  0  0  0  0  0  0  0  0  0
   -2.4492    0.6063    0.1205 N   0  0  0  0  0  0  0  0  0  0  0  0
   -0.3198   -1.4959    0.1234 N   0  0  0  0  0  4  0  0  0  0  0  0
    0.0949   -2.5565   -0.4601 O   0  0  0  0  0  1  0  0  0  0  0  0
   -4.5804   -2.8170   -1.5052 H   0  0  0  0  0  0  0  0  0  0  0  0
   -4.0514   -3.0945    0.1536 H   0  0  0  0  0  0  0  0  0  0  0  0
   -2.8736   -3.1251   -1.2016 H   0  0  0  0  0  0  0  0  0  0  0  0
    5.1113   -0.1695   -2.4418 H   0  0  0  0  0  0  0  0  0  0  0  0
    4.7469   -1.8622   -0.6644 H   0  0  0  0  0  0  0  0  0  0  0  0
    3.2901    1.3977   -3.0600 H   0  0  0  0  0  0  0  0  0  0  0  0
    2.5708   -1.9897    0.5036 H   0  0  0  0  0  0  0  0  0  0  0  0
    1.1062    1.2817   -1.9062 H   0  0  0  0  0  0  0  0  0  0  0  0
   -1.0036    4.2946    2.3574 H   0  0  0  0  0  0  0  0  0  0  0  0
   -2.7212    2.9641    1.2113 H   0  0  0  0  0  0  0  0  0  0  0  0
    1.9280    1.2742    1.5375 H   0  0  0  0  0  0  0  0  0  0  0  0
   -1.8962   -2.6593    0.8681 H   0  0  0  0  0  0  0  0  0  0  0  0
   -1.4920   -1.2491    1.8465 H   0  0  0  0  0  0  0  0  0  0  0  0
   -3.2096    1.1273   -0.3003 H   0  0  0  0  0  0  0  0  0  0  0  0
  1 18  1  0
  2  3  2  0
  2  4  1  0
  3  5  1  0
  4  6  2  0
  5 11  2  0
  6 11  1  0
  7  8  2  0
  7 12  1  0
  8 14  1  0
  9 12  2  0
  9 13  1  0
 10 15  1  0
 10 20  1  0
 11 16  1  0
 12 17  1  0
 13 14  2  0
 13 16  1  0
 14 19  1  0
 15 18  2  3
 15 19  1  0
 16 20  2  0
 20 21  1  0
  1 22  1  0
  1 23  1  0
  1 24  1  0
  2 25  1  0
  3 26  1  0
  4 27  1  0
  5 28  1  0
  6 29  1  0
  7 30  1  0
  8 31  1  0
  9 32  1  0
 10 33  1  0
 10 34  1  0
 19 35  1  0
M  CHG  2  20   1  21  -1
M  END
