
     RDKit          3D

 36 38  0  0  0  0  0  0  0  0999 V2000
   -1.0924   -2.5440    2.1601 C   0  0  0  0  0  0  0  0  0  0  0  0
    4.1682   -0.7247   -1.3130 C   0  0  0  0  0  0  0  0  0  0  0  0
    2.9398   -1.3334   -1.5589 C   0  0  0  0  0  0  0  0  0  0  0  0
    4.2597    0.2998   -0.3736 C   0  0  0  0  0  0  0  0  0  0  0  0
   -1.2749    2.7809   -1.5931 C   0  0  0  0  0  0  0  0  0  0  0  0
    1.8016   -0.9180   -0.8658 C   0  0  0  0  0  0  0  0  0  0  0  0
    3.1220    0.7166    0.3207 C   0  0  0  0  0  0  0  0  0  0  0  0
   -0.2625    2.2646   -0.7950 C   0  0  0  0  0  0  0  0  0  0  0  0
   -2.4986    2.1208   -1.6692 C   0  0  0  0  0  0  0  0  0  0  0  0
    0.1432   -0.4926    1.8546 C   0  0  0  0  0  0  0  0  0  0  0  0
   -1.9646   -0.8091    0.7298 C   0  0  0  0  0  0  0  0  0  0  0  0
    1.8759    0.1133    0.0833 C   0  0  0  0  0  0  0  0  0  0  0  0
   -0.4707    1.0908   -0.0522 C   0  0  0  0  0  0  0  0  0  0  0  0
    0.6432    0.5805    0.8544 C   0  0  0  0  0  0  0  0  0  0  0  0
   -1.7069    0.4056   -0.1445 C   0  0  0  0  0  0  0  0  0  0  0  0
   -2.7167    0.9109   -0.9937 C   0  0  0  0  0  0  0  0  0  0  0  0
   -4.0158    0.3686   -1.0190 N   0  0  0  0  0  0  0  0  0  0  0  0
   -0.7474   -1.4782    1.2224 N   0  0  0  0  0  0  0  0  0  0  0  0
   -1.7360   -3.2879    1.6775 H   0  0  0  0  0  0  0  0  0  0  0  0
   -0.1910   -3.0744    2.4864 H   0  0  0  0  0  0  0  0  0  0  0  0
   -1.6096   -2.1652    3.0491 H   0  0  0  0  0  0  0  0  0  0  0  0
    5.0531   -1.0489   -1.8536 H   0  0  0  0  0  0  0  0  0  0  0  0
    2.8639   -2.1328   -2.2910 H   0  0  0  0  0  0  0  0  0  0  0  0
    5.2176    0.7755   -0.1813 H   0  0  0  0  0  0  0  0  0  0  0  0
   -1.1178    3.7031   -2.1452 H   0  0  0  0  0  0  0  0  0  0  0  0
    0.8500   -1.4046   -1.0712 H   0  0  0  0  0  0  0  0  0  0  0  0
    3.2164    1.5185    1.0492 H   0  0  0  0  0  0  0  0  0  0  0  0
    0.6899    2.7873   -0.7389 H   0  0  0  0  0  0  0  0  0  0  0  0
   -3.2902    2.5603   -2.2706 H   0  0  0  0  0  0  0  0  0  0  0  0
   -0.3920    0.0081    2.6746 H   0  0  0  0  0  0  0  0  0  0  0  0
    1.0075   -0.9959    2.3080 H   0  0  0  0  0  0  0  0  0  0  0  0
   -2.5985   -0.4885    1.5675 H   0  0  0  0  0  0  0  0  0  0  0  0
   -2.5179   -1.5532    0.1461 H   0  0  0  0  0  0  0  0  0  0  0  0
    0.9433    1.4388    1.4740 H   0  0  0  0  0  0  0  0  0  0  0  0
   -4.0483   -0.6356   -0.8855 H   0  0  0  0  0  0  0  0  0  0  0  0
   -4.5437    0.6430   -1.8425 H   0  0  0  0  0  0  0  0  0  0  0  0
  1 18  1  0
  2  3  2  0
  2  4  1  0
  3  6  1  0
  4  7  2  0
  5  8  2  0
  5  9  1  0
  6 12  2  0
  7 12  1  0
  8 13  1  0
  9 16  2  0
 10 14  1  0
 10 18  1  0
 11 15  1  0
 11 18  1  0
 12 14  1  0
 13 14  1  0
 13 15  2  0
 15 16  1  0
 16 17  1  0
  1 19  1  0
  1 20  1  0
  1 21  1  0
  2 22  1  0
  3 23  1  0
  4 24  1  0
  5 25  1  0
  6 26  1  0
  7 27  1  0
  8 28  1  0
  9 29  1  0
 10 30  1  0
 10 31  1  0
 11 32  1  0
 11 33  1  0
 14 34  1  0
 17 35  1  0
 17 36  1  0
M  END
