
     RDKit          3D

 37 40  0  0  0  0  0  0  0  0999 V2000
   -3.7177    1.4138    0.8128 C   0  0  0  0  0  0  0  0  0  0  0  0
   -1.7776   -2.9266   -0.4879 C   0  0  0  0  0  0  0  0  0  0  0  0
    2.7787    2.6790    1.2555 C   0  0  0  0  0  0  0  0  0  0  0  0
    1.4415    2.2914    1.0858 C   0  0  0  0  0  0  0  0  0  0  0  0
    3.8427    1.8956    0.7804 C   0  0  0  0  0  0  0  0  0  0  0  0
    0.8537   -1.5333   -1.0667 C   0  0  0  0  0  0  0  0  0  0  0  0
   -1.3128    1.2964    0.1289 C   0  0  0  0  0  0  0  0  0  0  0  0
    3.4695   -1.2665   -0.9793 C   0  0  0  0  0  0  0  0  0  0  0  0
   -2.7001   -0.8077    0.1704 C   0  0  0  0  0  0  0  0  0  0  0  0
    2.1641   -0.9079   -0.7357 C   0  0  0  0  0  0  0  0  0  0  0  0
    1.1222    1.0981    0.4269 C   0  0  0  0  0  0  0  0  0  0  0  0
   -0.2153    0.5163    0.1656 C   0  0  0  0  0  0  0  0  0  0  0  0
    3.5077    0.7071    0.1284 C   0  0  0  0  0  0  0  0  0  0  0  0
   -0.2793   -1.0240   -0.0939 C   0  0  0  0  0  0  0  0  0  0  0  0
    2.1889    0.3212   -0.0434 C   0  0  0  0  0  0  0  0  0  0  0  0
   -2.6850    0.7234   -0.0756 C   0  0  0  0  0  0  0  0  0  0  0  0
    4.2755   -0.2801   -0.4513 N   0  0  0  0  0  0  0  0  0  0  0  0
   -1.6186   -1.4730   -0.5942 N   0  0  0  0  0  0  0  0  0  0  0  0
   -3.0337    0.9808   -1.4378 O   0  0  0  0  0  0  0  0  0  0  0  0
   -3.7639    2.4892    0.6035 H   0  0  0  0  0  0  0  0  0  0  0  0
   -4.7219    1.0201    0.6175 H   0  0  0  0  0  0  0  0  0  0  0  0
   -3.4942    1.2789    1.8765 H   0  0  0  0  0  0  0  0  0  0  0  0
   -2.7750   -3.2293   -0.8275 H   0  0  0  0  0  0  0  0  0  0  0  0
   -1.0724   -3.4546   -1.1363 H   0  0  0  0  0  0  0  0  0  0  0  0
   -1.6446   -3.2838    0.5395 H   0  0  0  0  0  0  0  0  0  0  0  0
    2.9981    3.6118    1.7715 H   0  0  0  0  0  0  0  0  0  0  0  0
    0.6567    2.9280    1.4840 H   0  0  0  0  0  0  0  0  0  0  0  0
    4.8728    2.2055    0.9170 H   0  0  0  0  0  0  0  0  0  0  0  0
    0.9528   -2.6224   -1.0010 H   0  0  0  0  0  0  0  0  0  0  0  0
    0.5953   -1.2808   -2.1032 H   0  0  0  0  0  0  0  0  0  0  0  0
   -1.2474    2.3748    0.2321 H   0  0  0  0  0  0  0  0  0  0  0  0
    3.9014   -2.1212   -1.4822 H   0  0  0  0  0  0  0  0  0  0  0  0
   -2.6102   -1.0337    1.2419 H   0  0  0  0  0  0  0  0  0  0  0  0
   -3.6672   -1.1969   -0.1746 H   0  0  0  0  0  0  0  0  0  0  0  0
   -0.1024   -1.4864    0.8905 H   0  0  0  0  0  0  0  0  0  0  0  0
    5.2852   -0.2740   -0.4878 H   0  0  0  0  0  0  0  0  0  0  0  0
   -2.4674    0.3710   -1.9507 H   0  0  0  0  0  0  0  0  0  0  0  0
  1 16  1  0
  2 18  1  0
  3  4  2  0
  3  5  1  0
  4 11  1  0
  5 13  2  0
  6 10  1  0
  6 14  1  0
  7 12  2  0
  7 16  1  0
  8 10  2  0
  8 17  1  0
  9 16  1  0
  9 18  1  0
 10 15  1  0
 11 12  1  0
 11 15  2  0
 12 14  1  0
 13 15  1  0
 13 17  1  0
 14 18  1  0
 16 19  1  0
  1 20  1  0
  1 21  1  0
  1 22  1  0
  2 23  1  0
  2 24  1  0
  2 25  1  0
  3 26  1  0
  4 27  1  0
  5 28  1  0
  6 29  1  0
  6 30  1  0
  7 31  1  0
  8 32  1  0
  9 33  1  0
  9 34  1  0
 14 35  1  0
 17 36  1  0
 19 37  1  0
M  END
