
     RDKit          3D

 38 41  0  0  0  0  0  0  0  0999 V2000
   -1.5782   -2.9865   -0.7812 C   0  0  0  0  0  0  0  0  0  0  0  0
    2.5880    3.1308   -0.0746 C   0  0  0  0  0  0  0  0  0  0  0  0
    1.3049    2.5864    0.0816 C   0  0  0  0  0  0  0  0  0  0  0  0
    3.7190    2.3195   -0.2590 C   0  0  0  0  0  0  0  0  0  0  0  0
    1.1185   -1.8376   -0.0164 C   0  0  0  0  0  0  0  0  0  0  0  0
   -1.2268    0.9865    0.8036 C   0  0  0  0  0  0  0  0  0  0  0  0
    3.6710   -1.3158   -0.3761 C   0  0  0  0  0  0  0  0  0  0  0  0
   -2.6029   -0.9204   -0.1056 C   0  0  0  0  0  0  0  0  0  0  0  0
   -3.7407    1.2127    0.6851 C   0  0  0  0  0  0  0  0  0  0  0  0
    2.3445   -1.0089   -0.1808 C   0  0  0  0  0  0  0  0  0  0  0  0
    1.1098    1.2000    0.0609 C   0  0  0  0  0  0  0  0  0  0  0  0
   -0.1573    0.4428    0.1909 C   0  0  0  0  0  0  0  0  0  0  0  0
    3.5076    0.9395   -0.2796 C   0  0  0  0  0  0  0  0  0  0  0  0
   -0.1763   -1.0133   -0.3807 C   0  0  0  0  0  0  0  0  0  0  0  0
    2.2430    0.3971   -0.1235 C   0  0  0  0  0  0  0  0  0  0  0  0
   -2.5434    0.2615    0.8976 C   0  0  0  0  0  0  0  0  0  0  0  0
    4.3670   -0.1270   -0.4346 N   0  0  0  0  0  0  0  0  0  0  0  0
   -1.3985   -1.7781    0.0304 N   0  0  0  0  0  0  0  0  0  0  0  0
   -3.8048    1.7484   -0.6360 O   0  0  0  0  0  0  0  0  0  0  0  0
   -2.6078   -0.2568    2.2324 O   0  0  0  0  0  0  0  0  0  0  0  0
   -2.4964   -3.5103   -0.4909 H   0  0  0  0  0  0  0  0  0  0  0  0
   -1.6382   -2.7616   -1.8521 H   0  0  0  0  0  0  0  0  0  0  0  0
   -0.7667   -3.7016   -0.6182 H   0  0  0  0  0  0  0  0  0  0  0  0
    2.7111    4.2120   -0.0546 H   0  0  0  0  0  0  0  0  0  0  0  0
    0.4635    3.2610    0.2090 H   0  0  0  0  0  0  0  0  0  0  0  0
    4.7065    2.7514   -0.3787 H   0  0  0  0  0  0  0  0  0  0  0  0
    1.0617   -2.1784    1.0255 H   0  0  0  0  0  0  0  0  0  0  0  0
    1.1994   -2.7237   -0.6556 H   0  0  0  0  0  0  0  0  0  0  0  0
   -1.1758    1.9633    1.2738 H   0  0  0  0  0  0  0  0  0  0  0  0
    4.1866   -2.2619   -0.4711 H   0  0  0  0  0  0  0  0  0  0  0  0
   -2.7035   -0.5658   -1.1400 H   0  0  0  0  0  0  0  0  0  0  0  0
   -3.4914   -1.5200    0.1321 H   0  0  0  0  0  0  0  0  0  0  0  0
   -3.7153    2.0459    1.3977 H   0  0  0  0  0  0  0  0  0  0  0  0
   -4.6796    0.6796    0.8748 H   0  0  0  0  0  0  0  0  0  0  0  0
   -0.1928   -0.8902   -1.4755 H   0  0  0  0  0  0  0  0  0  0  0  0
    5.3656   -0.0447   -0.5653 H   0  0  0  0  0  0  0  0  0  0  0  0
   -2.9938    2.2690   -0.7745 H   0  0  0  0  0  0  0  0  0  0  0  0
   -1.9774   -1.0049    2.2292 H   0  0  0  0  0  0  0  0  0  0  0  0
  1 18  1  0
  2  3  2  0
  2  4  1  0
  3 11  1  0
  4 13  2  0
  5 10  1  0
  5 14  1  0
  6 12  2  0
  6 16  1  0
  7 10  2  0
  7 17  1  0
  8 16  1  0
  8 18  1  0
  9 16  1  0
  9 19  1  0
 10 15  1  0
 11 12  1  0
 11 15  2  0
 12 14  1  0
 13 15  1  0
 13 17  1  0
 14 18  1  0
 16 20  1  0
  1 21  1  0
  1 22  1  0
  1 23  1  0
  2 24  1  0
  3 25  1  0
  4 26  1  0
  5 27  1  0
  5 28  1  0
  6 29  1  0
  7 30  1  0
  8 31  1  0
  8 32  1  0
  9 33  1  0
  9 34  1  0
 14 35  1  0
 17 36  1  0
 19 37  1  0
 20 38  1  0
M  END
