
     RDKit          3D

 38 40  0  0  0  0  0  0  0  0999 V2000
   -5.0244    0.1029   -0.4689 C   0  0  0  0  0  0  0  0  0  0  0  0
    5.8736    0.7280    0.9989 C   0  0  0  0  0  0  0  0  0  0  0  0
    4.5799    1.1665    0.5958 C   0  0  0  0  0  0  0  0  0  0  0  0
    1.5707   -1.1354   -0.5928 C   0  0  0  0  0  0  0  0  0  0  0  0
    0.7047   -2.1968   -0.2986 C   0  0  0  0  0  0  0  0  0  0  0  0
    6.5490    0.1071   -0.0271 C   0  0  0  0  0  0  0  0  0  0  0  0
   -3.2061    0.5327    1.2853 C   0  0  0  0  0  0  0  0  0  0  0  0
   -0.0988    0.4742    0.0972 C   0  0  0  0  0  0  0  0  0  0  0  0
   -2.6647   -1.9681    1.0022 C   0  0  0  0  0  0  0  0  0  0  0  0
    3.0714    1.1498   -1.5290 C   0  0  0  0  0  0  0  0  0  0  0  0
   -4.0668    1.1250    0.1458 C   0  0  0  0  0  0  0  0  0  0  0  0
   -2.3341   -0.6293    0.9031 C   0  0  0  0  0  0  0  0  0  0  0  0
    1.1758    0.1887   -0.4108 C   0  0  0  0  0  0  0  0  0  0  0  0
    4.3036    0.8596   -0.7234 C   0  0  0  0  0  0  0  0  0  0  0  0
   -0.9938   -0.5736    0.3983 C   0  0  0  0  0  0  0  0  0  0  0  0
   -0.5674   -1.8845    0.1920 C   0  0  0  0  0  0  0  0  0  0  0  0
   -3.2564    1.7513   -0.9068 N   0  0  0  0  0  0  0  0  0  0  0  0
   -1.6004   -2.7099    0.5671 N   0  0  0  0  0  0  0  0  0  0  0  0
    1.9491    1.2931   -0.6523 O   0  0  0  0  0  0  0  0  0  0  0  0
    5.6263    0.0563   -1.4650 S   0  0  0  0  0  0  0  0  0  0  0  0
   -4.4930   -0.6762   -1.0257 H   0  0  0  0  0  0  0  0  0  0  0  0
   -5.7165    0.5904   -1.1649 H   0  0  0  0  0  0  0  0  0  0  0  0
   -5.6256   -0.3814    0.3080 H   0  0  0  0  0  0  0  0  0  0  0  0
    6.2863    0.8624    1.9911 H   0  0  0  0  0  0  0  0  0  0  0  0
    3.8770    1.6779    1.2441 H   0  0  0  0  0  0  0  0  0  0  0  0
    2.5657   -1.3867   -0.9463 H   0  0  0  0  0  0  0  0  0  0  0  0
    1.0228   -3.2248   -0.4384 H   0  0  0  0  0  0  0  0  0  0  0  0
    7.5427   -0.3186   -0.0031 H   0  0  0  0  0  0  0  0  0  0  0  0
   -2.5780    1.3258    1.7123 H   0  0  0  0  0  0  0  0  0  0  0  0
   -3.8731    0.2158    2.0986 H   0  0  0  0  0  0  0  0  0  0  0  0
   -0.4004    1.5071    0.2512 H   0  0  0  0  0  0  0  0  0  0  0  0
   -3.5683   -2.4532    1.3465 H   0  0  0  0  0  0  0  0  0  0  0  0
    3.2056    2.1179   -2.0262 H   0  0  0  0  0  0  0  0  0  0  0  0
    2.8826    0.4164   -2.3221 H   0  0  0  0  0  0  0  0  0  0  0  0
   -4.6772    1.9217    0.5891 H   0  0  0  0  0  0  0  0  0  0  0  0
   -2.6185    1.0516   -1.2919 H   0  0  0  0  0  0  0  0  0  0  0  0
   -3.8556    2.0353   -1.6802 H   0  0  0  0  0  0  0  0  0  0  0  0
   -1.5678   -3.7192    0.5341 H   0  0  0  0  0  0  0  0  0  0  0  0
  1 11  1  0
  2  3  1  0
  2  6  2  0
  3 14  2  0
  4  5  2  0
  4 13  1  0
  5 16  1  0
  6 20  1  0
  7 11  1  0
  7 12  1  0
  8 13  2  0
  8 15  1  0
  9 12  2  0
  9 18  1  0
 10 14  1  0
 10 19  1  0
 11 17  1  0
 12 15  1  0
 13 19  1  0
 14 20  1  0
 15 16  2  0
 16 18  1  0
  1 21  1  0
  1 22  1  0
  1 23  1  0
  2 24  1  0
  3 25  1  0
  4 26  1  0
  5 27  1  0
  6 28  1  0
  7 29  1  0
  7 30  1  0
  8 31  1  0
  9 32  1  0
 10 33  1  0
 10 34  1  0
 11 35  1  0
 17 36  1  0
 17 37  1  0
 18 38  1  0
M  END
