
     RDKit          3D

 40 42  0  0  0  0  0  0  0  0999 V2000
   -1.7829   -3.4248    1.2585 C   0  0  0  0  0  0  0  0  0  0  0  0
   -1.6798    3.4617    0.2127 C   0  0  0  0  0  0  0  0  0  0  0  0
    2.7098    0.3838    0.6227 C   0  0  0  0  0  0  0  0  0  0  0  0
   -1.7855   -1.9090   -1.3669 C   0  0  0  0  0  0  0  0  0  0  0  0
    3.8997    1.1132    0.6959 C   0  0  0  0  0  0  0  0  0  0  0  0
   -2.4628   -0.9685   -0.3695 C   0  0  0  0  0  0  0  0  0  0  0  0
    1.9838    1.7601   -1.2204 C   0  0  0  0  0  0  0  0  0  0  0  0
    0.6784   -1.5555   -0.8234 C   0  0  0  0  0  0  0  0  0  0  0  0
    1.7357    0.6977   -0.3357 C   0  0  0  0  0  0  0  0  0  0  0  0
   -0.5625   -2.4465   -0.6203 C   0  0  0  0  0  0  0  0  0  0  0  0
    0.4261   -0.0770   -0.4300 C   0  0  0  0  0  0  0  0  0  0  0  0
    4.1351    2.1687   -0.1876 C   0  0  0  0  0  0  0  0  0  0  0  0
    3.1742    2.4936   -1.1486 C   0  0  0  0  0  0  0  0  0  0  0  0
   -1.5735   -1.0133    0.8823 C   0  0  0  0  0  0  0  0  0  0  0  0
   -0.4335    0.0314    0.8593 C   0  0  0  0  0  0  0  0  0  0  0  0
   -1.0287    1.4039    1.1232 C   0  0  0  0  0  0  0  0  0  0  0  0
    5.6269    3.0269   -0.0386 Cl  0  0  0  0  0  0  0  0  0  0  0  0
    3.3886    3.7871   -2.2746 Cl  0  0  0  0  0  0  0  0  0  0  0  0
   -0.9176   -2.3370    0.8050 N   0  0  0  0  0  0  0  0  0  0  0  0
   -1.4231    1.7580    2.2287 O   0  0  0  0  0  0  0  0  0  0  0  0
   -1.1260    2.1620   -0.0008 O   0  0  0  0  0  0  0  0  0  0  0  0
   -1.2559   -4.3817    1.1753 H   0  0  0  0  0  0  0  0  0  0  0  0
   -2.0272   -3.2923    2.3182 H   0  0  0  0  0  0  0  0  0  0  0  0
   -2.7220   -3.5064    0.7018 H   0  0  0  0  0  0  0  0  0  0  0  0
   -1.6816    3.9895   -0.7449 H   0  0  0  0  0  0  0  0  0  0  0  0
   -1.0664    4.0294    0.9195 H   0  0  0  0  0  0  0  0  0  0  0  0
   -2.7120    3.3832    0.5677 H   0  0  0  0  0  0  0  0  0  0  0  0
    2.5540   -0.4349    1.3241 H   0  0  0  0  0  0  0  0  0  0  0  0
   -1.5221   -1.3963   -2.2977 H   0  0  0  0  0  0  0  0  0  0  0  0
   -2.4721   -2.7245   -1.6233 H   0  0  0  0  0  0  0  0  0  0  0  0
    4.6402    0.8510    1.4483 H   0  0  0  0  0  0  0  0  0  0  0  0
   -2.5856    0.0368   -0.7824 H   0  0  0  0  0  0  0  0  0  0  0  0
   -3.4661   -1.3466   -0.1385 H   0  0  0  0  0  0  0  0  0  0  0  0
    1.2411    2.0257   -1.9708 H   0  0  0  0  0  0  0  0  0  0  0  0
    0.9995   -1.6007   -1.8723 H   0  0  0  0  0  0  0  0  0  0  0  0
    1.5047   -1.9777   -0.2363 H   0  0  0  0  0  0  0  0  0  0  0  0
   -0.3161   -3.4713   -0.9205 H   0  0  0  0  0  0  0  0  0  0  0  0
   -0.1455    0.3569   -1.2616 H   0  0  0  0  0  0  0  0  0  0  0  0
   -2.1667   -0.8947    1.7971 H   0  0  0  0  0  0  0  0  0  0  0  0
    0.2174   -0.1618    1.7247 H   0  0  0  0  0  0  0  0  0  0  0  0
  1 19  1  0
  2 21  1  0
  3  5  2  0
  3  9  1  0
  4  6  1  0
  4 10  1  0
  5 12  1  0
  6 14  1  0
  7  9  2  0
  7 13  1  0
  8 10  1  0
  8 11  1  0
  9 11  1  0
 10 19  1  0
 11 15  1  0
 12 13  2  0
 12 17  1  0
 13 18  1  0
 14 15  1  0
 14 19  1  0
 15 16  1  0
 16 20  2  0
 16 21  1  0
  1 22  1  0
  1 23  1  0
  1 24  1  0
  2 25  1  0
  2 26  1  0
  2 27  1  0
  3 28  1  0
  4 29  1  0
  4 30  1  0
  5 31  1  0
  6 32  1  0
  6 33  1  0
  7 34  1  0
  8 35  1  0
  8 36  1  0
 10 37  1  0
 11 38  1  0
 14 39  1  0
 15 40  1  0
M  END
