
     RDKit          3D

 41 42  0  0  0  0  0  0  0  0999 V2000
   -1.6668    3.6636   -1.1282 C   0  0  0  0  0  0  0  0  0  0  0  0
   -3.2113   -3.3119   -0.1812 C   0  0  0  0  0  0  0  0  0  0  0  0
   -5.1636    0.8584   -0.0262 C   0  0  0  0  0  0  0  0  0  0  0  0
    5.1430   -2.0480    0.3410 C   0  0  0  0  0  0  0  0  0  0  0  0
    5.4484   -0.6733    0.4116 C   0  0  0  0  0  0  0  0  0  0  0  0
    1.0141   -0.4094    0.6254 C   0  0  0  0  0  0  0  0  0  0  0  0
    3.8204   -2.1426   -0.0132 C   0  0  0  0  0  0  0  0  0  0  0  0
    1.9410   -0.6220   -0.5706 C   0  0  0  0  0  0  0  0  0  0  0  0
   -0.8106    1.1334   -0.1898 C   0  0  0  0  0  0  0  0  0  0  0  0
   -1.3274   -1.2189    0.1190 C   0  0  0  0  0  0  0  0  0  0  0  0
   -0.4091   -0.1588    0.1858 C   0  0  0  0  0  0  0  0  0  0  0  0
    4.3061    0.0618    0.1074 C   0  0  0  0  0  0  0  0  0  0  0  0
   -2.1168    1.3766   -0.6197 C   0  0  0  0  0  0  0  0  0  0  0  0
   -2.6393   -0.9979   -0.3067 C   0  0  0  0  0  0  0  0  0  0  0  0
   -3.0278    0.3070   -0.6557 C   0  0  0  0  0  0  0  0  0  0  0  0
    4.2424    1.5031    0.0922 C   0  0  0  0  0  0  0  0  0  0  0  0
    3.3168   -0.8693   -0.1610 N   0  0  0  0  0  0  0  0  0  0  0  0
    2.9998    1.9843   -0.1107 O   0  0  0  0  0  0  0  0  0  0  0  0
    5.1665    2.2856    0.2569 O   0  0  0  0  0  0  0  0  0  0  0  0
   -2.6001    2.6002   -1.0054 O   0  0  0  0  0  0  0  0  0  0  0  0
   -3.6056   -1.9656   -0.4042 O   0  0  0  0  0  0  0  0  0  0  0  0
   -4.3076    0.5280   -1.1184 O   0  0  0  0  0  0  0  0  0  0  0  0
   -2.2021    4.5353   -1.5169 H   0  0  0  0  0  0  0  0  0  0  0  0
   -1.2524    3.9366   -0.1523 H   0  0  0  0  0  0  0  0  0  0  0  0
   -0.8726    3.4162   -1.8405 H   0  0  0  0  0  0  0  0  0  0  0  0
   -2.4252   -3.6169   -0.8799 H   0  0  0  0  0  0  0  0  0  0  0  0
   -2.8989   -3.4627    0.8572 H   0  0  0  0  0  0  0  0  0  0  0  0
   -4.0820   -3.9497   -0.3616 H   0  0  0  0  0  0  0  0  0  0  0  0
   -4.8402    1.7792    0.4714 H   0  0  0  0  0  0  0  0  0  0  0  0
   -6.1673    1.0274   -0.4276 H   0  0  0  0  0  0  0  0  0  0  0  0
   -5.2238    0.0382    0.6975 H   0  0  0  0  0  0  0  0  0  0  0  0
    5.8142   -2.8770    0.5250 H   0  0  0  0  0  0  0  0  0  0  0  0
    6.4093   -0.2403    0.6653 H   0  0  0  0  0  0  0  0  0  0  0  0
    1.0454   -1.2853    1.2869 H   0  0  0  0  0  0  0  0  0  0  0  0
    1.3534    0.4294    1.2455 H   0  0  0  0  0  0  0  0  0  0  0  0
    3.1978   -3.0129   -0.1781 H   0  0  0  0  0  0  0  0  0  0  0  0
    1.6142   -1.4948   -1.1513 H   0  0  0  0  0  0  0  0  0  0  0  0
    1.9336    0.2177   -1.2724 H   0  0  0  0  0  0  0  0  0  0  0  0
   -0.0799    1.9347   -0.1353 H   0  0  0  0  0  0  0  0  0  0  0  0
   -0.9938   -2.2107    0.4078 H   0  0  0  0  0  0  0  0  0  0  0  0
    3.1580    2.9512   -0.0824 H   0  0  0  0  0  0  0  0  0  0  0  0
  1 20  1  0
  2 21  1  0
  3 22  1  0
  4  5  1  0
  4  7  2  0
  5 12  2  0
  6  8  1  0
  6 11  1  0
  7 17  1  0
  8 17  1  0
  9 11  2  0
  9 13  1  0
 10 11  1  0
 10 14  2  0
 12 16  1  0
 12 17  1  0
 13 15  2  0
 13 20  1  0
 14 15  1  0
 14 21  1  0
 15 22  1  0
 16 18  1  0
 16 19  2  0
  1 23  1  0
  1 24  1  0
  1 25  1  0
  2 26  1  0
  2 27  1  0
  2 28  1  0
  3 29  1  0
  3 30  1  0
  3 31  1  0
  4 32  1  0
  5 33  1  0
  6 34  1  0
  6 35  1  0
  7 36  1  0
  8 37  1  0
  8 38  1  0
  9 39  1  0
 10 40  1  0
 18 41  1  0
M  END
