
     RDKit          3D

 38 40  0  0  0  0  0  0  0  0999 V2000
    1.7380   -0.6783    1.9623 C   0  0  0  0  0  0  0  0  0  0  0  0
    3.4913    0.6576   -1.7692 C   0  0  0  0  0  0  0  0  0  0  0  0
    3.4294   -0.8309   -2.0944 C   0  0  0  0  0  0  0  0  0  0  0  0
   -2.5589   -2.6529   -1.1939 C   0  0  0  0  0  0  0  0  0  0  0  0
   -3.8793    3.2594    0.6390 C   0  0  0  0  0  0  0  0  0  0  0  0
   -1.8161   -1.4442   -1.0681 C   0  0  0  0  0  0  0  0  0  0  0  0
   -3.2452    2.1165    0.0722 C   0  0  0  0  0  0  0  0  0  0  0  0
    2.7382    0.8014   -0.4560 C   0  0  0  0  0  0  0  0  0  0  0  0
    2.4914   -1.4319   -1.0549 C   0  0  0  0  0  0  0  0  0  0  0  0
   -3.3050   -2.9147   -0.0684 C   0  0  0  0  0  0  0  0  0  0  0  0
   -3.3762    3.5593    1.8826 C   0  0  0  0  0  0  0  0  0  0  0  0
   -0.1051    0.5186    0.8021 C   0  0  0  0  0  0  0  0  0  0  0  0
    0.9528   -0.5535    0.6475 C   0  0  0  0  0  0  0  0  0  0  0  0
   -1.4437    0.4125    0.6388 C   0  0  0  0  0  0  0  0  0  0  0  0
   -2.0059   -0.8154    0.1529 C   0  0  0  0  0  0  0  0  0  0  0  0
   -2.2587    1.5761    0.8843 C   0  0  0  0  0  0  0  0  0  0  0  0
    1.7557   -0.2745   -0.5494 N   0  0  0  0  0  0  0  0  0  0  0  0
   -3.1096   -1.7103    1.1280 S   0  0  0  0  0  0  0  0  0  0  0  0
   -2.1548    2.4666    2.3620 S   0  0  0  0  0  0  0  0  0  0  0  0
    1.0689   -0.9814    2.7766 H   0  0  0  0  0  0  0  0  0  0  0  0
    2.5236   -1.4371    1.8914 H   0  0  0  0  0  0  0  0  0  0  0  0
    2.2025    0.2675    2.2624 H   0  0  0  0  0  0  0  0  0  0  0  0
    2.9938    1.2295   -2.5618 H   0  0  0  0  0  0  0  0  0  0  0  0
    4.5219    1.0176   -1.6920 H   0  0  0  0  0  0  0  0  0  0  0  0
    4.4210   -1.2924   -2.0417 H   0  0  0  0  0  0  0  0  0  0  0  0
    3.0433   -0.9773   -3.1095 H   0  0  0  0  0  0  0  0  0  0  0  0
   -2.5465   -3.2946   -2.0661 H   0  0  0  0  0  0  0  0  0  0  0  0
   -4.6674    3.8265    0.1596 H   0  0  0  0  0  0  0  0  0  0  0  0
   -1.1606   -1.0469   -1.8353 H   0  0  0  0  0  0  0  0  0  0  0  0
   -3.4971    1.7040   -0.8979 H   0  0  0  0  0  0  0  0  0  0  0  0
    2.2801    1.7913   -0.3715 H   0  0  0  0  0  0  0  0  0  0  0  0
    3.4364    0.6613    0.3772 H   0  0  0  0  0  0  0  0  0  0  0  0
    1.8265   -2.1766   -1.5041 H   0  0  0  0  0  0  0  0  0  0  0  0
    3.0812   -1.9219   -0.2716 H   0  0  0  0  0  0  0  0  0  0  0  0
   -3.9603   -3.7557    0.1114 H   0  0  0  0  0  0  0  0  0  0  0  0
   -3.6722    4.3649    2.5401 H   0  0  0  0  0  0  0  0  0  0  0  0
    0.3017    1.4833    1.1028 H   0  0  0  0  0  0  0  0  0  0  0  0
    0.4646   -1.5233    0.4999 H   0  0  0  0  0  0  0  0  0  0  0  0
  1 13  1  0
  2  3  1  0
  2  8  1  0
  3  9  1  0
  4  6  1  0
  4 10  2  0
  5  7  1  0
  5 11  2  0
  6 15  2  0
  7 16  2  0
  8 17  1  0
  9 17  1  0
 10 18  1  0
 11 19  1  0
 12 13  1  0
 12 14  2  3
 13 17  1  0
 14 15  1  0
 14 16  1  0
 15 18  1  0
 16 19  1  0
  1 20  1  0
  1 21  1  0
  1 22  1  0
  2 23  1  0
  2 24  1  0
  3 25  1  0
  3 26  1  0
  4 27  1  0
  5 28  1  0
  6 29  1  0
  7 30  1  0
  8 31  1  0
  8 32  1  0
  9 33  1  0
  9 34  1  0
 10 35  1  0
 11 36  1  0
 12 37  1  0
 13 38  1  0
M  END
