
     RDKit          3D

 38 41  0  0  0  0  0  0  0  0999 V2000
    3.7207    1.8279    0.3070 C   0  0  0  0  0  0  0  0  0  0  0  0
    1.9900   -2.3615   -1.5753 C   0  0  0  0  0  0  0  0  0  0  0  0
   -2.9847    2.3020    1.3540 C   0  0  0  0  0  0  0  0  0  0  0  0
   -1.6242    1.9551    1.3226 C   0  0  0  0  0  0  0  0  0  0  0  0
   -3.9814    1.4505    0.8506 C   0  0  0  0  0  0  0  0  0  0  0  0
    1.2758    1.3150    0.5864 C   0  0  0  0  0  0  0  0  0  0  0  0
   -0.7061   -1.9699   -0.4378 C   0  0  0  0  0  0  0  0  0  0  0  0
   -3.3331   -1.8206   -0.6053 C   0  0  0  0  0  0  0  0  0  0  0  0
    2.7652   -0.2896   -0.6629 C   0  0  0  0  0  0  0  0  0  0  0  0
    2.6826    0.7204    0.4870 C   0  0  0  0  0  0  0  0  0  0  0  0
   -2.0689   -1.3803   -0.2880 C   0  0  0  0  0  0  0  0  0  0  0  0
   -1.2016    0.7397    0.7669 C   0  0  0  0  0  0  0  0  0  0  0  0
    0.2207    0.2059    0.7016 C   0  0  0  0  0  0  0  0  0  0  0  0
   -3.5511    0.2338    0.3222 C   0  0  0  0  0  0  0  0  0  0  0  0
    0.3927   -0.8364   -0.4908 C   0  0  0  0  0  0  0  0  0  0  0  0
   -2.2122   -0.1032    0.2890 C   0  0  0  0  0  0  0  0  0  0  0  0
   -4.2234   -0.8336   -0.2327 N   0  0  0  0  0  0  0  0  0  0  0  0
    1.7831   -1.3771   -0.5090 N   0  0  0  0  0  0  0  0  0  0  0  0
    3.6819    2.5358    1.1416 H   0  0  0  0  0  0  0  0  0  0  0  0
    4.7322    1.4097    0.2698 H   0  0  0  0  0  0  0  0  0  0  0  0
    3.5511    2.3868   -0.6195 H   0  0  0  0  0  0  0  0  0  0  0  0
    3.0376   -2.6831   -1.6088 H   0  0  0  0  0  0  0  0  0  0  0  0
    1.7236   -1.9641   -2.5611 H   0  0  0  0  0  0  0  0  0  0  0  0
    1.4123   -3.2725   -1.3914 H   0  0  0  0  0  0  0  0  0  0  0  0
   -3.2765    3.2565    1.7881 H   0  0  0  0  0  0  0  0  0  0  0  0
   -0.9039    2.6501    1.7452 H   0  0  0  0  0  0  0  0  0  0  0  0
   -5.0289    1.7267    0.8844 H   0  0  0  0  0  0  0  0  0  0  0  0
    1.0673    1.9395   -0.2928 H   0  0  0  0  0  0  0  0  0  0  0  0
    1.2339    1.9757    1.4607 H   0  0  0  0  0  0  0  0  0  0  0  0
   -0.6846   -2.5662   -1.3567 H   0  0  0  0  0  0  0  0  0  0  0  0
   -0.5084   -2.6394    0.4083 H   0  0  0  0  0  0  0  0  0  0  0  0
   -3.6853   -2.7374   -1.0582 H   0  0  0  0  0  0  0  0  0  0  0  0
    3.7776   -0.7141   -0.6678 H   0  0  0  0  0  0  0  0  0  0  0  0
    2.6268    0.2211   -1.6259 H   0  0  0  0  0  0  0  0  0  0  0  0
    2.9082    0.1995    1.4277 H   0  0  0  0  0  0  0  0  0  0  0  0
    0.3924   -0.3325    1.6454 H   0  0  0  0  0  0  0  0  0  0  0  0
    0.2248   -0.2856   -1.4308 H   0  0  0  0  0  0  0  0  0  0  0  0
   -5.2261   -0.8844   -0.3440 H   0  0  0  0  0  0  0  0  0  0  0  0
  1 10  1  0
  2 18  1  0
  3  4  2  0
  3  5  1  0
  4 12  1  0
  5 14  2  0
  6 10  1  0
  6 13  1  0
  7 11  1  0
  7 15  1  0
  8 11  2  0
  8 17  1  0
  9 10  1  0
  9 18  1  0
 11 16  1  0
 12 13  1  0
 12 16  2  0
 13 15  1  0
 14 16  1  0
 14 17  1  0
 15 18  1  0
  1 19  1  0
  1 20  1  0
  1 21  1  0
  2 22  1  0
  2 23  1  0
  2 24  1  0
  3 25  1  0
  4 26  1  0
  5 27  1  0
  6 28  1  0
  6 29  1  0
  7 30  1  0
  7 31  1  0
  8 32  1  0
  9 33  1  0
  9 34  1  0
 10 35  1  0
 13 36  1  0
 15 37  1  0
 17 38  1  0
M  END
