
     RDKit          3D

 38 41  0  0  0  0  0  0  0  0999 V2000
    3.5954    1.9386   -0.8712 C   0  0  0  0  0  0  0  0  0  0  0  0
    4.3590    1.0596   -1.6345 C   0  0  0  0  0  0  0  0  0  0  0  0
    2.6161    1.4563    0.0050 C   0  0  0  0  0  0  0  0  0  0  0  0
    4.1705   -0.3221   -1.5433 C   0  0  0  0  0  0  0  0  0  0  0  0
   -2.2969   -1.1412   -1.7150 C   0  0  0  0  0  0  0  0  0  0  0  0
   -0.9824   -0.4225   -1.7221 C   0  0  0  0  0  0  0  0  0  0  0  0
   -3.8888    0.7796    1.8179 C   0  0  0  0  0  0  0  0  0  0  0  0
   -4.3832   -0.1712    0.7714 C   0  0  0  0  0  0  0  0  0  0  0  0
    0.4685   -0.2861    1.8596 C   0  0  0  0  0  0  0  0  0  0  0  0
   -0.6932    0.5263    1.2587 C   0  0  0  0  0  0  0  0  0  0  0  0
    1.8004   -2.0637    0.5665 C   0  0  0  0  0  0  0  0  0  0  0  0
    1.5032   -0.7502    0.8780 C   0  0  0  0  0  0  0  0  0  0  0  0
   -1.4704   -1.0802   -0.4557 C   0  0  0  0  0  0  0  0  0  0  0  0
   -3.0479    0.5049    0.5970 C   0  0  0  0  0  0  0  0  0  0  0  0
    2.3996    0.0665    0.1124 C   0  0  0  0  0  0  0  0  0  0  0  0
    3.1870   -0.7868   -0.6616 C   0  0  0  0  0  0  0  0  0  0  0  0
    2.7996   -2.0723   -0.3671 N   0  0  0  0  0  0  0  0  0  0  0  0
   -1.8144   -0.2835    0.7406 N   0  0  0  0  0  0  0  0  0  0  0  0
    3.7601    3.0099   -0.9540 H   0  0  0  0  0  0  0  0  0  0  0  0
    5.1158    1.4526   -2.3095 H   0  0  0  0  0  0  0  0  0  0  0  0
    2.0302    2.1528    0.5965 H   0  0  0  0  0  0  0  0  0  0  0  0
    4.7704   -1.0050   -2.1356 H   0  0  0  0  0  0  0  0  0  0  0  0
   -2.3557   -2.0954   -2.2265 H   0  0  0  0  0  0  0  0  0  0  0  0
   -3.1929   -0.5442   -1.8173 H   0  0  0  0  0  0  0  0  0  0  0  0
   -0.1420   -0.8834   -2.2280 H   0  0  0  0  0  0  0  0  0  0  0  0
   -0.9978    0.6579   -1.7933 H   0  0  0  0  0  0  0  0  0  0  0  0
   -3.5735    0.3623    2.7671 H   0  0  0  0  0  0  0  0  0  0  0  0
   -4.3673    1.7483    1.8932 H   0  0  0  0  0  0  0  0  0  0  0  0
   -4.3924   -1.2286    1.0090 H   0  0  0  0  0  0  0  0  0  0  0  0
   -5.1965    0.1490    0.1321 H   0  0  0  0  0  0  0  0  0  0  0  0
    0.9811    0.3460    2.5976 H   0  0  0  0  0  0  0  0  0  0  0  0
    0.0729   -1.1392    2.4257 H   0  0  0  0  0  0  0  0  0  0  0  0
   -0.3416    1.2347    0.4997 H   0  0  0  0  0  0  0  0  0  0  0  0
   -1.0824    1.1388    2.0832 H   0  0  0  0  0  0  0  0  0  0  0  0
    1.3754   -2.9910    0.9272 H   0  0  0  0  0  0  0  0  0  0  0  0
   -0.9948   -2.0235   -0.1918 H   0  0  0  0  0  0  0  0  0  0  0  0
   -2.9981    1.3089   -0.1351 H   0  0  0  0  0  0  0  0  0  0  0  0
    3.2071   -2.9009   -0.7768 H   0  0  0  0  0  0  0  0  0  0  0  0
  1  2  2  0
  1  3  1  0
  2  4  1  0
  3 15  2  0
  4 16  2  0
  5  6  1  0
  5 13  1  0
  6 13  1  0
  7  8  1  0
  7 14  1  0
  8 14  1  0
  9 10  1  0
  9 12  1  0
 10 18  1  0
 11 12  2  0
 11 17  1  0
 12 15  1  0
 13 18  1  0
 14 18  1  0
 15 16  1  0
 16 17  1  0
  1 19  1  0
  2 20  1  0
  3 21  1  0
  4 22  1  0
  5 23  1  0
  5 24  1  0
  6 25  1  0
  6 26  1  0
  7 27  1  0
  7 28  1  0
  8 29  1  0
  8 30  1  0
  9 31  1  0
  9 32  1  0
 10 33  1  0
 10 34  1  0
 11 35  1  0
 13 36  1  0
 14 37  1  0
 17 38  1  0
M  END
