
     RDKit          3D

 39 42  0  0  0  0  0  0  0  0999 V2000
   -1.9863    0.8867    1.7764 C   0  0  0  0  0  0  0  0  0  0  0  0
   -1.5159   -2.7384   -0.6446 C   0  0  0  0  0  0  0  0  0  0  0  0
    2.1982    2.0481    1.8390 C   0  0  0  0  0  0  0  0  0  0  0  0
    1.1004    2.0631    0.9625 C   0  0  0  0  0  0  0  0  0  0  0  0
    3.1328    1.0023    1.8420 C   0  0  0  0  0  0  0  0  0  0  0  0
    0.8451   -1.3352   -1.8057 C   0  0  0  0  0  0  0  0  0  0  0  0
    3.0082   -1.8600   -0.3992 C   0  0  0  0  0  0  0  0  0  0  0  0
   -2.6007   -0.6622   -0.1337 C   0  0  0  0  0  0  0  0  0  0  0  0
   -2.4646    0.7953    0.3251 C   0  0  0  0  0  0  0  0  0  0  0  0
    1.8936   -1.1440   -0.7680 C   0  0  0  0  0  0  0  0  0  0  0  0
    0.8748    1.0163    0.0571 C   0  0  0  0  0  0  0  0  0  0  0  0
    2.9205   -0.0203    0.9192 C   0  0  0  0  0  0  0  0  0  0  0  0
   -0.5004   -0.6162   -1.4013 C   0  0  0  0  0  0  0  0  0  0  0  0
    1.8386   -0.0039    0.0601 C   0  0  0  0  0  0  0  0  0  0  0  0
   -0.2364    0.9035   -0.9818 C   0  0  0  0  0  0  0  0  0  0  0  0
   -1.6023    1.5617   -0.6847 C   0  0  0  0  0  0  0  0  0  0  0  0
    3.6168   -1.1746    0.6323 N   0  0  0  0  0  0  0  0  0  0  0  0
   -1.3018   -1.3205   -0.3532 N   0  0  0  0  0  0  0  0  0  0  0  0
   -1.5205    2.9457   -0.3493 O   0  0  0  0  0  0  0  0  0  0  0  0
   -1.8439    1.9274    2.0833 H   0  0  0  0  0  0  0  0  0  0  0  0
   -2.7367    0.4508    2.4458 H   0  0  0  0  0  0  0  0  0  0  0  0
   -1.0549    0.3409    1.9466 H   0  0  0  0  0  0  0  0  0  0  0  0
   -2.1766   -3.1950    0.1019 H   0  0  0  0  0  0  0  0  0  0  0  0
   -1.9627   -2.8922   -1.6331 H   0  0  0  0  0  0  0  0  0  0  0  0
   -0.5809   -3.3029   -0.5825 H   0  0  0  0  0  0  0  0  0  0  0  0
    2.3248    2.8721    2.5386 H   0  0  0  0  0  0  0  0  0  0  0  0
    0.4173    2.9051    1.0219 H   0  0  0  0  0  0  0  0  0  0  0  0
    3.9748    0.9995    2.5241 H   0  0  0  0  0  0  0  0  0  0  0  0
    0.6976   -2.3948   -2.0323 H   0  0  0  0  0  0  0  0  0  0  0  0
    1.2044   -0.8771   -2.7373 H   0  0  0  0  0  0  0  0  0  0  0  0
    3.4255   -2.7874   -0.7665 H   0  0  0  0  0  0  0  0  0  0  0  0
   -3.1712   -1.2082    0.6290 H   0  0  0  0  0  0  0  0  0  0  0  0
   -3.1991   -0.6978   -1.0546 H   0  0  0  0  0  0  0  0  0  0  0  0
   -3.4646    1.2509    0.3134 H   0  0  0  0  0  0  0  0  0  0  0  0
   -1.1111   -0.5990   -2.3168 H   0  0  0  0  0  0  0  0  0  0  0  0
    0.1711    1.4181   -1.8654 H   0  0  0  0  0  0  0  0  0  0  0  0
   -2.1597    1.5463   -1.6325 H   0  0  0  0  0  0  0  0  0  0  0  0
    4.4584   -1.4680    1.1073 H   0  0  0  0  0  0  0  0  0  0  0  0
   -0.9125    3.3638   -0.9832 H   0  0  0  0  0  0  0  0  0  0  0  0
  1  9  1  0
  2 18  1  0
  3  4  2  0
  3  5  1  0
  4 11  1  0
  5 12  2  0
  6 10  1  0
  6 13  1  0
  7 10  2  0
  7 17  1  0
  8  9  1  0
  8 18  1  0
  9 16  1  0
 10 14  1  0
 11 14  2  0
 11 15  1  0
 12 14  1  0
 12 17  1  0
 13 15  1  0
 13 18  1  0
 15 16  1  0
 16 19  1  0
  1 20  1  0
  1 21  1  0
  1 22  1  0
  2 23  1  0
  2 24  1  0
  2 25  1  0
  3 26  1  0
  4 27  1  0
  5 28  1  0
  6 29  1  0
  6 30  1  0
  7 31  1  0
  8 32  1  0
  8 33  1  0
  9 34  1  0
 13 35  1  0
 15 36  1  0
 16 37  1  0
 17 38  1  0
 19 39  1  0
M  END
