
     RDKit          3D

 42 43  0  0  0  0  0  0  0  0999 V2000
    2.4675   -2.8372    1.4124 C   0  0  0  0  0  0  0  0  0  0  0  0
    4.0024   -2.5360   -0.5482 C   0  0  0  0  0  0  0  0  0  0  0  0
   -0.3830    4.7670    0.0389 C   0  0  0  0  0  0  0  0  0  0  0  0
   -0.3684    3.9171    1.1414 C   0  0  0  0  0  0  0  0  0  0  0  0
   -0.1267    4.2574   -1.2304 C   0  0  0  0  0  0  0  0  0  0  0  0
   -2.5693   -1.5910    0.8824 C   0  0  0  0  0  0  0  0  0  0  0  0
   -3.2159   -1.7785   -0.4886 C   0  0  0  0  0  0  0  0  0  0  0  0
   -0.0997    2.5560    0.9764 C   0  0  0  0  0  0  0  0  0  0  0  0
    0.1434    2.8976   -1.3960 C   0  0  0  0  0  0  0  0  0  0  0  0
   -1.5003   -0.4945    0.8787 C   0  0  0  0  0  0  0  0  0  0  0  0
   -3.1646   -0.4928   -1.3041 C   0  0  0  0  0  0  0  0  0  0  0  0
    3.1199   -1.8290    0.4730 C   0  0  0  0  0  0  0  0  0  0  0  0
    0.1615    2.0225   -0.2942 C   0  0  0  0  0  0  0  0  0  0  0  0
   -0.8213   -0.3843   -0.4976 C   0  0  0  0  0  0  0  0  0  0  0  0
    0.4368    0.5370   -0.5278 C   0  0  0  0  0  0  0  0  0  0  0  0
    1.5270   -0.0554    0.3654 C   0  0  0  0  0  0  0  0  0  0  0  0
   -1.7990   -0.0202   -1.5514 N   0  0  0  0  0  0  0  0  0  0  0  0
    1.8359    0.3274    1.4857 O   0  0  0  0  0  0  0  0  0  0  0  0
    2.0986   -1.1289   -0.2618 O   0  0  0  0  0  0  0  0  0  0  0  0
    1.8336   -2.3323    2.1485 H   0  0  0  0  0  0  0  0  0  0  0  0
    3.2200   -3.4221    1.9500 H   0  0  0  0  0  0  0  0  0  0  0  0
    1.8173   -3.5237    0.8588 H   0  0  0  0  0  0  0  0  0  0  0  0
    4.4495   -1.8076   -1.2334 H   0  0  0  0  0  0  0  0  0  0  0  0
    4.8068   -3.0948   -0.0603 H   0  0  0  0  0  0  0  0  0  0  0  0
    3.4164   -3.2276   -1.1638 H   0  0  0  0  0  0  0  0  0  0  0  0
   -0.5899    5.8256    0.1704 H   0  0  0  0  0  0  0  0  0  0  0  0
   -0.5615    4.3126    2.1354 H   0  0  0  0  0  0  0  0  0  0  0  0
   -0.1350    4.9185   -2.0931 H   0  0  0  0  0  0  0  0  0  0  0  0
   -2.1289   -2.5435    1.2011 H   0  0  0  0  0  0  0  0  0  0  0  0
   -3.3330   -1.3396    1.6280 H   0  0  0  0  0  0  0  0  0  0  0  0
   -2.6961   -2.5774   -1.0330 H   0  0  0  0  0  0  0  0  0  0  0  0
   -4.2528   -2.1115   -0.3660 H   0  0  0  0  0  0  0  0  0  0  0  0
   -0.0879    1.9226    1.8613 H   0  0  0  0  0  0  0  0  0  0  0  0
    0.3376    2.5240   -2.4001 H   0  0  0  0  0  0  0  0  0  0  0  0
   -0.7742   -0.7094    1.6702 H   0  0  0  0  0  0  0  0  0  0  0  0
   -1.9787    0.4571    1.1404 H   0  0  0  0  0  0  0  0  0  0  0  0
   -3.6597   -0.6455   -2.2689 H   0  0  0  0  0  0  0  0  0  0  0  0
   -3.7280    0.2895   -0.7800 H   0  0  0  0  0  0  0  0  0  0  0  0
    3.7400   -1.1226    1.0379 H   0  0  0  0  0  0  0  0  0  0  0  0
   -0.4683   -1.3938   -0.7535 H   0  0  0  0  0  0  0  0  0  0  0  0
    0.8606    0.4720   -1.5429 H   0  0  0  0  0  0  0  0  0  0  0  0
   -1.8326    0.9952   -1.6610 H   0  0  0  0  0  0  0  0  0  0  0  0
  1 12  1  0
  2 12  1  0
  3  4  2  0
  3  5  1  0
  4  8  1  0
  5  9  2  0
  6  7  1  0
  6 10  1  0
  7 11  1  0
  8 13  2  0
  9 13  1  0
 10 14  1  0
 11 17  1  0
 12 19  1  0
 13 15  1  0
 14 15  1  0
 14 17  1  0
 15 16  1  0
 16 18  2  0
 16 19  1  0
  1 20  1  0
  1 21  1  0
  1 22  1  0
  2 23  1  0
  2 24  1  0
  2 25  1  0
  3 26  1  0
  4 27  1  0
  5 28  1  0
  6 29  1  0
  6 30  1  0
  7 31  1  0
  7 32  1  0
  8 33  1  0
  9 34  1  0
 10 35  1  0
 10 36  1  0
 11 37  1  0
 11 38  1  0
 12 39  1  0
 14 40  1  0
 15 41  1  0
 17 42  1  0
M  END
