
     RDKit          3D

 41 42  0  0  0  0  0  0  0  0999 V2000
   -0.4690   -2.8052   -1.3012 C   0  0  0  0  0  0  0  0  0  0  0  0
    5.5954   -0.2437    2.4746 C   0  0  0  0  0  0  0  0  0  0  0  0
   -4.8309    1.0729    0.0435 C   0  0  0  0  0  0  0  0  0  0  0  0
    2.1753    1.2830   -1.8602 C   0  0  0  0  0  0  0  0  0  0  0  0
    0.8515    0.8906   -1.6237 C   0  0  0  0  0  0  0  0  0  0  0  0
    3.2012    0.8373   -1.0327 C   0  0  0  0  0  0  0  0  0  0  0  0
   -1.3300    0.2280    1.0911 C   0  0  0  0  0  0  0  0  0  0  0  0
   -1.9823   -0.1019   -1.3431 C   0  0  0  0  0  0  0  0  0  0  0  0
   -2.8475    0.3570    1.2117 C   0  0  0  0  0  0  0  0  0  0  0  0
   -2.6805    1.2319   -1.0825 C   0  0  0  0  0  0  0  0  0  0  0  0
    1.5755   -0.3961    0.2786 C   0  0  0  0  0  0  0  0  0  0  0  0
   -0.9395   -1.9814   -0.1203 C   0  0  0  0  0  0  0  0  0  0  0  0
    4.5677    0.4583    1.6372 C   0  0  0  0  0  0  0  0  0  0  0  0
    0.5251    0.0308   -0.5609 C   0  0  0  0  0  0  0  0  0  0  0  0
    2.8873    0.0180    0.0450 C   0  0  0  0  0  0  0  0  0  0  0  0
   -0.9152   -0.4327   -0.2587 C   0  0  0  0  0  0  0  0  0  0  0  0
   -3.3918    1.2703    0.1979 N   0  0  0  0  0  0  0  0  0  0  0  0
   -1.3395   -2.5482    0.9000 O   0  0  0  0  0  0  0  0  0  0  0  0
    4.3836    1.6676    1.6449 O   0  0  0  0  0  0  0  0  0  0  0  0
    3.8860   -0.4909    0.8822 O   0  0  0  0  0  0  0  0  0  0  0  0
    0.5917   -2.6303   -1.4923 H   0  0  0  0  0  0  0  0  0  0  0  0
   -1.0569   -2.5679   -2.1901 H   0  0  0  0  0  0  0  0  0  0  0  0
   -0.6057   -3.8675   -1.0763 H   0  0  0  0  0  0  0  0  0  0  0  0
    6.1586    0.4957    3.0514 H   0  0  0  0  0  0  0  0  0  0  0  0
    6.2932   -0.7845    1.8298 H   0  0  0  0  0  0  0  0  0  0  0  0
    5.1021   -0.9280    3.1696 H   0  0  0  0  0  0  0  0  0  0  0  0
   -5.0678    0.0906   -0.3803 H   0  0  0  0  0  0  0  0  0  0  0  0
   -5.2578    1.8428   -0.6090 H   0  0  0  0  0  0  0  0  0  0  0  0
   -5.3397    1.1651    1.0095 H   0  0  0  0  0  0  0  0  0  0  0  0
    2.4025    1.9474   -2.6906 H   0  0  0  0  0  0  0  0  0  0  0  0
    0.0918    1.2892   -2.2900 H   0  0  0  0  0  0  0  0  0  0  0  0
    4.2254    1.1441   -1.2200 H   0  0  0  0  0  0  0  0  0  0  0  0
   -0.9463   -0.3387    1.9490 H   0  0  0  0  0  0  0  0  0  0  0  0
   -0.8918    1.2329    1.1821 H   0  0  0  0  0  0  0  0  0  0  0  0
   -2.7590   -0.8808   -1.3611 H   0  0  0  0  0  0  0  0  0  0  0  0
   -1.5563   -0.1145   -2.3526 H   0  0  0  0  0  0  0  0  0  0  0  0
   -3.3019   -0.6395    1.1352 H   0  0  0  0  0  0  0  0  0  0  0  0
   -3.0968    0.7464    2.2059 H   0  0  0  0  0  0  0  0  0  0  0  0
   -1.9349    2.0361   -1.0766 H   0  0  0  0  0  0  0  0  0  0  0  0
   -3.3507    1.4657   -1.9193 H   0  0  0  0  0  0  0  0  0  0  0  0
    1.3779   -1.0496    1.1266 H   0  0  0  0  0  0  0  0  0  0  0  0
  1 12  1  0
  2 13  1  0
  3 17  1  0
  4  5  2  0
  4  6  1  0
  5 14  1  0
  6 15  2  0
  7  9  1  0
  7 16  1  0
  8 10  1  0
  8 16  1  0
  9 17  1  0
 10 17  1  0
 11 14  2  0
 11 15  1  0
 12 16  1  0
 12 18  2  0
 13 19  2  0
 13 20  1  0
 14 16  1  0
 15 20  1  0
  1 21  1  0
  1 22  1  0
  1 23  1  0
  2 24  1  0
  2 25  1  0
  2 26  1  0
  3 27  1  0
  3 28  1  0
  3 29  1  0
  4 30  1  0
  5 31  1  0
  6 32  1  0
  7 33  1  0
  7 34  1  0
  8 35  1  0
  8 36  1  0
  9 37  1  0
  9 38  1  0
 10 39  1  0
 10 40  1  0
 11 41  1  0
M  END
