
     RDKit          3D

 41 43  0  0  0  0  0  0  0  0999 V2000
   -3.8132   -0.5866    0.9520 C   0  0  0  0  0  0  0  0  0  0  0  0
   -0.9812    3.6241   -1.5014 C   0  0  0  0  0  0  0  0  0  0  0  0
    2.3393    0.6886    1.2111 C   0  0  0  0  0  0  0  0  0  0  0  0
    2.7415   -0.3768   -0.9127 C   0  0  0  0  0  0  0  0  0  0  0  0
   -1.7516   -2.7179    0.3648 C   0  0  0  0  0  0  0  0  0  0  0  0
    3.6329    1.2167    1.1857 C   0  0  0  0  0  0  0  0  0  0  0  0
    4.0361    0.1490   -0.9391 C   0  0  0  0  0  0  0  0  0  0  0  0
   -1.9934   -2.0225   -0.9799 C   0  0  0  0  0  0  0  0  0  0  0  0
   -0.1551   -1.0746    1.5116 C   0  0  0  0  0  0  0  0  0  0  0  0
    1.8745   -0.1218    0.1663 C   0  0  0  0  0  0  0  0  0  0  0  0
   -1.6126   -1.5719    1.3731 C   0  0  0  0  0  0  0  0  0  0  0  0
    4.4715    0.9419    0.1149 C   0  0  0  0  0  0  0  0  0  0  0  0
    0.4727   -0.7146    0.1427 C   0  0  0  0  0  0  0  0  0  0  0  0
   -1.9605   -0.5215   -0.6542 C   0  0  0  0  0  0  0  0  0  0  0  0
   -0.5254    0.0531   -0.7632 C   0  0  0  0  0  0  0  0  0  0  0  0
   -0.5779    1.5503   -0.4913 C   0  0  0  0  0  0  0  0  0  0  0  0
   -2.3702   -0.4686    0.7612 N   0  0  0  0  0  0  0  0  0  0  0  0
    5.7250    1.4774    0.1322 O   0  0  0  0  0  0  0  0  0  0  0  0
   -0.3767    2.1033    0.5807 O   0  0  0  0  0  0  0  0  0  0  0  0
   -0.9045    2.2060   -1.6481 O   0  0  0  0  0  0  0  0  0  0  0  0
   -4.0555   -0.5388    2.0194 H   0  0  0  0  0  0  0  0  0  0  0  0
   -4.2401   -1.5107    0.5494 H   0  0  0  0  0  0  0  0  0  0  0  0
   -4.3243    0.2578    0.4765 H   0  0  0  0  0  0  0  0  0  0  0  0
   -1.2389    4.0515   -2.4744 H   0  0  0  0  0  0  0  0  0  0  0  0
   -0.0138    4.0311   -1.1906 H   0  0  0  0  0  0  0  0  0  0  0  0
   -1.7650    3.8940   -0.7868 H   0  0  0  0  0  0  0  0  0  0  0  0
    1.6978    0.9453    2.0506 H   0  0  0  0  0  0  0  0  0  0  0  0
    2.4126   -0.9959   -1.7449 H   0  0  0  0  0  0  0  0  0  0  0  0
   -0.8725   -3.3698    0.3385 H   0  0  0  0  0  0  0  0  0  0  0  0
   -2.6168   -3.3455    0.6098 H   0  0  0  0  0  0  0  0  0  0  0  0
    3.9776    1.8485    1.9994 H   0  0  0  0  0  0  0  0  0  0  0  0
    4.6814   -0.0698   -1.7834 H   0  0  0  0  0  0  0  0  0  0  0  0
   -2.9776   -2.3115   -1.3678 H   0  0  0  0  0  0  0  0  0  0  0  0
   -1.2499   -2.3120   -1.7296 H   0  0  0  0  0  0  0  0  0  0  0  0
   -0.1522   -0.2087    2.1844 H   0  0  0  0  0  0  0  0  0  0  0  0
    0.4527   -1.8479    1.9985 H   0  0  0  0  0  0  0  0  0  0  0  0
   -1.9885   -1.8483    2.3647 H   0  0  0  0  0  0  0  0  0  0  0  0
    0.6242   -1.6922   -0.3403 H   0  0  0  0  0  0  0  0  0  0  0  0
   -2.6367    0.0466   -1.3042 H   0  0  0  0  0  0  0  0  0  0  0  0
   -0.1733   -0.0628   -1.7989 H   0  0  0  0  0  0  0  0  0  0  0  0
    6.1875    1.2055   -0.6767 H   0  0  0  0  0  0  0  0  0  0  0  0
  1 17  1  0
  2 20  1  0
  3  6  2  0
  3 10  1  0
  4  7  1  0
  4 10  2  0
  5  8  1  0
  5 11  1  0
  6 12  1  0
  7 12  2  0
  8 14  1  0
  9 11  1  0
  9 13  1  0
 10 13  1  0
 11 17  1  0
 12 18  1  0
 13 15  1  0
 14 15  1  0
 14 17  1  0
 15 16  1  0
 16 19  2  0
 16 20  1  0
  1 21  1  0
  1 22  1  0
  1 23  1  0
  2 24  1  0
  2 25  1  0
  2 26  1  0
  3 27  1  0
  4 28  1  0
  5 29  1  0
  5 30  1  0
  6 31  1  0
  7 32  1  0
  8 33  1  0
  8 34  1  0
  9 35  1  0
  9 36  1  0
 11 37  1  0
 13 38  1  0
 14 39  1  0
 15 40  1  0
 18 41  1  0
M  END
