
     RDKit          3D

 40 41  0  0  0  0  0  0  0  0999 V2000
   -2.7721   -1.3531    2.0827 C   0  0  0  0  0  0  0  0  0  0  0  0
   -3.6651    1.0763   -0.5179 C   0  0  0  0  0  0  0  0  0  0  0  0
   -0.8963   -0.0531   -2.4365 C   0  0  0  0  0  0  0  0  0  0  0  0
   -1.7639   -0.5444    1.2698 C   0  0  0  0  0  0  0  0  0  0  0  0
   -3.2254   -0.3743   -0.7002 C   0  0  0  0  0  0  0  0  0  0  0  0
    4.1210   -2.8461    0.8288 C   0  0  0  0  0  0  0  0  0  0  0  0
    1.8622    3.5865   -0.2568 C   0  0  0  0  0  0  0  0  0  0  0  0
    2.8141   -2.2889    0.7206 C   0  0  0  0  0  0  0  0  0  0  0  0
    1.8573    2.2887   -0.8447 C   0  0  0  0  0  0  0  0  0  0  0  0
    5.0831   -1.9898    0.3497 C   0  0  0  0  0  0  0  0  0  0  0  0
    1.7443    3.5298    1.1127 C   0  0  0  0  0  0  0  0  0  0  0  0
    0.5453   -0.7048   -0.5778 C   0  0  0  0  0  0  0  0  0  0  0  0
   -0.7730   -0.0253   -0.9024 C   0  0  0  0  0  0  0  0  0  0  0  0
    1.6851   -0.1446   -0.1118 C   0  0  0  0  0  0  0  0  0  0  0  0
    2.7998   -1.0188    0.1589 C   0  0  0  0  0  0  0  0  0  0  0  0
    1.7287    1.2744    0.0901 C   0  0  0  0  0  0  0  0  0  0  0  0
   -1.8839   -0.7203   -0.1958 N   0  0  0  0  0  0  0  0  0  0  0  0
    4.4135   -0.5279   -0.2220 S   0  0  0  0  0  0  0  0  0  0  0  0
    1.6323    1.9228    1.6833 S   0  0  0  0  0  0  0  0  0  0  0  0
   -2.7680   -2.4061    1.7825 H   0  0  0  0  0  0  0  0  0  0  0  0
   -3.7886   -0.9618    1.9816 H   0  0  0  0  0  0  0  0  0  0  0  0
   -2.5123   -1.3082    3.1458 H   0  0  0  0  0  0  0  0  0  0  0  0
   -2.9838    1.7761   -1.0103 H   0  0  0  0  0  0  0  0  0  0  0  0
   -3.7373    1.3489    0.5391 H   0  0  0  0  0  0  0  0  0  0  0  0
   -4.6572    1.2182   -0.9596 H   0  0  0  0  0  0  0  0  0  0  0  0
   -1.0459   -1.0726   -2.8115 H   0  0  0  0  0  0  0  0  0  0  0  0
   -1.7275    0.5666   -2.7877 H   0  0  0  0  0  0  0  0  0  0  0  0
    0.0087    0.3439   -2.9121 H   0  0  0  0  0  0  0  0  0  0  0  0
   -0.7771   -0.8865    1.6020 H   0  0  0  0  0  0  0  0  0  0  0  0
   -1.8349    0.5136    1.5493 H   0  0  0  0  0  0  0  0  0  0  0  0
   -3.3014   -0.6385   -1.7612 H   0  0  0  0  0  0  0  0  0  0  0  0
   -3.9713   -1.0266   -0.2310 H   0  0  0  0  0  0  0  0  0  0  0  0
    4.3414   -3.8231    1.2407 H   0  0  0  0  0  0  0  0  0  0  0  0
    1.9536    4.5128   -0.8104 H   0  0  0  0  0  0  0  0  0  0  0  0
    1.9159   -2.7974    1.0515 H   0  0  0  0  0  0  0  0  0  0  0  0
    1.9484    2.1016   -1.9081 H   0  0  0  0  0  0  0  0  0  0  0  0
    6.1517   -2.1495    0.3098 H   0  0  0  0  0  0  0  0  0  0  0  0
    1.7243    4.3552    1.8108 H   0  0  0  0  0  0  0  0  0  0  0  0
    0.5204   -1.7797   -0.7565 H   0  0  0  0  0  0  0  0  0  0  0  0
   -0.7660    1.0261   -0.5953 H   0  0  0  0  0  0  0  0  0  0  0  0
  1  4  1  0
  2  5  1  0
  3 13  1  0
  4 17  1  0
  5 17  1  0
  6  8  1  0
  6 10  2  0
  7  9  1  0
  7 11  2  0
  8 15  2  0
  9 16  2  0
 10 18  1  0
 11 19  1  0
 12 13  1  0
 12 14  2  3
 13 17  1  0
 14 15  1  0
 14 16  1  0
 15 18  1  0
 16 19  1  0
  1 20  1  0
  1 21  1  0
  1 22  1  0
  2 23  1  0
  2 24  1  0
  2 25  1  0
  3 26  1  0
  3 27  1  0
  3 28  1  0
  4 29  1  0
  4 30  1  0
  5 31  1  0
  5 32  1  0
  6 33  1  0
  7 34  1  0
  8 35  1  0
  9 36  1  0
 10 37  1  0
 11 38  1  0
 12 39  1  0
 13 40  1  0
M  END
