
     RDKit          3D

 42 43  0  0  0  0  0  0  0  0999 V2000
   -3.4780    2.6004   -0.7352 C   0  0  0  0  0  0  0  0  0  0  0  0
   -3.4276   -3.1143    1.1524 C   0  0  0  0  0  0  0  0  0  0  0  0
   -2.2727    2.5016    0.1903 C   0  0  0  0  0  0  0  0  0  0  0  0
   -2.4300   -1.9665    1.0859 C   0  0  0  0  0  0  0  0  0  0  0  0
    4.2169    0.0942    1.8859 C   0  0  0  0  0  0  0  0  0  0  0  0
    5.3346   -0.3529    1.1857 C   0  0  0  0  0  0  0  0  0  0  0  0
    3.0217    0.3780    1.2150 C   0  0  0  0  0  0  0  0  0  0  0  0
    5.2928   -0.5289   -0.2005 C   0  0  0  0  0  0  0  0  0  0  0  0
    0.5195    0.8643   -0.9082 C   0  0  0  0  0  0  0  0  0  0  0  0
   -2.0673    1.0929    0.7639 C   0  0  0  0  0  0  0  0  0  0  0  0
   -2.6768   -1.0905   -0.1512 C   0  0  0  0  0  0  0  0  0  0  0  0
   -0.3922   -0.2745   -0.4207 C   0  0  0  0  0  0  0  0  0  0  0  0
    2.4651    0.0593   -2.3849 C   0  0  0  0  0  0  0  0  0  0  0  0
    1.9213    0.3953   -1.1603 C   0  0  0  0  0  0  0  0  0  0  0  0
    2.9522    0.2083   -0.1833 C   0  0  0  0  0  0  0  0  0  0  0  0
    4.0893   -0.2405   -0.8553 C   0  0  0  0  0  0  0  0  0  0  0  0
    3.7654   -0.3195   -2.1893 N   0  0  0  0  0  0  0  0  0  0  0  0
   -1.8157    0.0976   -0.2889 N   0  0  0  0  0  0  0  0  0  0  0  0
   -4.3909    2.2743   -0.2268 H   0  0  0  0  0  0  0  0  0  0  0  0
   -3.3448    1.9888   -1.6329 H   0  0  0  0  0  0  0  0  0  0  0  0
   -3.6214    3.6372   -1.0560 H   0  0  0  0  0  0  0  0  0  0  0  0
   -3.2350   -3.7329    2.0346 H   0  0  0  0  0  0  0  0  0  0  0  0
   -3.3507   -3.7527    0.2664 H   0  0  0  0  0  0  0  0  0  0  0  0
   -4.4537   -2.7389    1.2186 H   0  0  0  0  0  0  0  0  0  0  0  0
   -1.3822    2.8431   -0.3461 H   0  0  0  0  0  0  0  0  0  0  0  0
   -2.4171    3.1969    1.0261 H   0  0  0  0  0  0  0  0  0  0  0  0
   -2.5137   -1.3745    2.0037 H   0  0  0  0  0  0  0  0  0  0  0  0
   -1.4193   -2.3884    1.0615 H   0  0  0  0  0  0  0  0  0  0  0  0
    4.2711    0.2254    2.9636 H   0  0  0  0  0  0  0  0  0  0  0  0
    6.2548   -0.5678    1.7241 H   0  0  0  0  0  0  0  0  0  0  0  0
    2.1568    0.7270    1.7708 H   0  0  0  0  0  0  0  0  0  0  0  0
    6.1656   -0.8764   -0.7432 H   0  0  0  0  0  0  0  0  0  0  0  0
    0.5549    1.6705   -0.1667 H   0  0  0  0  0  0  0  0  0  0  0  0
    0.1108    1.2957   -1.8308 H   0  0  0  0  0  0  0  0  0  0  0  0
   -2.9751    0.8470    1.3307 H   0  0  0  0  0  0  0  0  0  0  0  0
   -1.2565    1.1075    1.5031 H   0  0  0  0  0  0  0  0  0  0  0  0
   -3.7250   -0.7631   -0.1630 H   0  0  0  0  0  0  0  0  0  0  0  0
   -2.5659   -1.7067   -1.0532 H   0  0  0  0  0  0  0  0  0  0  0  0
   -0.3116   -1.0934   -1.1487 H   0  0  0  0  0  0  0  0  0  0  0  0
   -0.0059   -0.6663    0.5291 H   0  0  0  0  0  0  0  0  0  0  0  0
    2.0344    0.0589   -3.3775 H   0  0  0  0  0  0  0  0  0  0  0  0
    4.4017   -0.6155   -2.9161 H   0  0  0  0  0  0  0  0  0  0  0  0
  1  3  1  0
  2  4  1  0
  3 10  1  0
  4 11  1  0
  5  6  2  0
  5  7  1  0
  6  8  1  0
  7 15  2  0
  8 16  2  0
  9 12  1  0
  9 14  1  0
 10 18  1  0
 11 18  1  0
 12 18  1  0
 13 14  2  0
 13 17  1  0
 14 15  1  0
 15 16  1  0
 16 17  1  0
  1 19  1  0
  1 20  1  0
  1 21  1  0
  2 22  1  0
  2 23  1  0
  2 24  1  0
  3 25  1  0
  3 26  1  0
  4 27  1  0
  4 28  1  0
  5 29  1  0
  6 30  1  0
  7 31  1  0
  8 32  1  0
  9 33  1  0
  9 34  1  0
 10 35  1  0
 10 36  1  0
 11 37  1  0
 11 38  1  0
 12 39  1  0
 12 40  1  0
 13 41  1  0
 17 42  1  0
M  END
