
     RDKit          3D

 41 42  0  0  0  0  0  0  0  0999 V2000
   -1.4506    3.0161   -0.7287 C   0  0  0  0  0  0  0  0  0  0  0  0
   -5.0318   -2.3908   -0.4394 C   0  0  0  0  0  0  0  0  0  0  0  0
   -1.3264    2.6352    0.7383 C   0  0  0  0  0  0  0  0  0  0  0  0
   -4.2659   -1.4120    0.4375 C   0  0  0  0  0  0  0  0  0  0  0  0
    5.6773    0.0438   -1.7983 C   0  0  0  0  0  0  0  0  0  0  0  0
    5.9107    0.3739   -0.4603 C   0  0  0  0  0  0  0  0  0  0  0  0
   -0.3880    1.4456    0.9859 C   0  0  0  0  0  0  0  0  0  0  0  0
    4.4154   -0.3956   -2.2256 C   0  0  0  0  0  0  0  0  0  0  0  0
    4.8947    0.2771    0.4963 C   0  0  0  0  0  0  0  0  0  0  0  0
   -2.8469   -1.1859   -0.0871 C   0  0  0  0  0  0  0  0  0  0  0  0
    2.0159   -0.8876   -1.3037 C   0  0  0  0  0  0  0  0  0  0  0  0
    0.2215   -1.0010    0.6219 C   0  0  0  0  0  0  0  0  0  0  0  0
    3.3811   -0.4990   -1.2788 C   0  0  0  0  0  0  0  0  0  0  0  0
   -0.8031    0.1172    0.3062 C   0  0  0  0  0  0  0  0  0  0  0  0
    1.5461   -0.7591   -0.0126 C   0  0  0  0  0  0  0  0  0  0  0  0
    3.6536   -0.1616    0.0415 C   0  0  0  0  0  0  0  0  0  0  0  0
   -2.1576   -0.2307    0.7762 N   0  0  0  0  0  0  0  0  0  0  0  0
    2.5416   -0.3222    0.8103 O   0  0  0  0  0  0  0  0  0  0  0  0
   -0.4664    3.1913   -1.1744 H   0  0  0  0  0  0  0  0  0  0  0  0
   -1.9587    2.2367   -1.3041 H   0  0  0  0  0  0  0  0  0  0  0  0
   -2.0365    3.9354   -0.8293 H   0  0  0  0  0  0  0  0  0  0  0  0
   -4.5329   -3.3648   -0.4684 H   0  0  0  0  0  0  0  0  0  0  0  0
   -5.1156   -2.0164   -1.4646 H   0  0  0  0  0  0  0  0  0  0  0  0
   -6.0433   -2.5387   -0.0481 H   0  0  0  0  0  0  0  0  0  0  0  0
   -0.9350    3.4993    1.2892 H   0  0  0  0  0  0  0  0  0  0  0  0
   -2.3218    2.4333    1.1494 H   0  0  0  0  0  0  0  0  0  0  0  0
   -4.2319   -1.8025    1.4619 H   0  0  0  0  0  0  0  0  0  0  0  0
   -4.8108   -0.4606    0.4707 H   0  0  0  0  0  0  0  0  0  0  0  0
    6.4862    0.1286   -2.5210 H   0  0  0  0  0  0  0  0  0  0  0  0
    6.8989    0.7123   -0.1556 H   0  0  0  0  0  0  0  0  0  0  0  0
   -0.3107    1.2920    2.0707 H   0  0  0  0  0  0  0  0  0  0  0  0
    0.6140    1.7346    0.6457 H   0  0  0  0  0  0  0  0  0  0  0  0
    4.2452   -0.6491   -3.2674 H   0  0  0  0  0  0  0  0  0  0  0  0
    5.0565    0.5285    1.5371 H   0  0  0  0  0  0  0  0  0  0  0  0
   -2.8997   -0.7961   -1.1104 H   0  0  0  0  0  0  0  0  0  0  0  0
   -2.3172   -2.1438   -0.1156 H   0  0  0  0  0  0  0  0  0  0  0  0
    1.4444   -1.2173   -2.1596 H   0  0  0  0  0  0  0  0  0  0  0  0
   -0.1429   -1.9677    0.2554 H   0  0  0  0  0  0  0  0  0  0  0  0
    0.3401   -1.1086    1.7077 H   0  0  0  0  0  0  0  0  0  0  0  0
   -0.8273    0.2847   -0.7780 H   0  0  0  0  0  0  0  0  0  0  0  0
   -2.1220   -0.5745    1.7356 H   0  0  0  0  0  0  0  0  0  0  0  0
  1  3  1  0
  2  4  1  0
  3  7  1  0
  4 10  1  0
  5  6  2  0
  5  8  1  0
  6  9  1  0
  7 14  1  0
  8 13  2  0
  9 16  2  0
 10 17  1  0
 11 13  1  0
 11 15  2  0
 12 14  1  0
 12 15  1  0
 13 16  1  0
 14 17  1  0
 15 18  1  0
 16 18  1  0
  1 19  1  0
  1 20  1  0
  1 21  1  0
  2 22  1  0
  2 23  1  0
  2 24  1  0
  3 25  1  0
  3 26  1  0
  4 27  1  0
  4 28  1  0
  5 29  1  0
  6 30  1  0
  7 31  1  0
  7 32  1  0
  8 33  1  0
  9 34  1  0
 10 35  1  0
 10 36  1  0
 11 37  1  0
 12 38  1  0
 12 39  1  0
 14 40  1  0
 17 41  1  0
M  END
