
     RDKit          3D

 42 44  0  0  0  0  0  0  0  0999 V2000
    4.7351   -0.0648   -0.5396 C   0  0  0  0  0  0  0  0  0  0  0  0
   -1.4981    3.0902   -2.2832 C   0  0  0  0  0  0  0  0  0  0  0  0
    0.9245   -1.3994    2.7271 C   0  0  0  0  0  0  0  0  0  0  0  0
   -3.7175   -0.3264    1.1207 C   0  0  0  0  0  0  0  0  0  0  0  0
   -2.8608   -1.3302    1.9428 C   0  0  0  0  0  0  0  0  0  0  0  0
    2.4520    0.7565    0.1558 C   0  0  0  0  0  0  0  0  0  0  0  0
   -2.8323   -1.9771   -0.3425 C   0  0  0  0  0  0  0  0  0  0  0  0
    0.1631    1.3970   -0.7214 C   0  0  0  0  0  0  0  0  0  0  0  0
    3.2716    0.0770   -0.9609 C   0  0  0  0  0  0  0  0  0  0  0  0
   -3.1639   -0.4740   -0.3106 C   0  0  0  0  0  0  0  0  0  0  0  0
   -1.9092   -1.9351    0.8895 C   0  0  0  0  0  0  0  0  0  0  0  0
    0.9640    0.4983    0.0347 C   0  0  0  0  0  0  0  0  0  0  0  0
   -1.2097    1.1916   -0.8974 C   0  0  0  0  0  0  0  0  0  0  0  0
   -1.7507    0.0643   -0.3138 C   0  0  0  0  0  0  0  0  0  0  0  0
   -0.9731   -0.8397    0.4366 C   0  0  0  0  0  0  0  0  0  0  0  0
    0.3744   -0.6274    0.6335 C   0  0  0  0  0  0  0  0  0  0  0  0
    3.2098    0.8485   -2.2125 N   0  0  0  0  0  0  0  0  0  0  0  0
   -2.0694    1.9855   -1.5946 O   0  0  0  0  0  0  0  0  0  0  0  0
    1.1468   -1.5173    1.3221 O   0  0  0  0  0  0  0  0  0  0  0  0
    4.8188   -0.6820    0.3615 H   0  0  0  0  0  0  0  0  0  0  0  0
    5.3263   -0.5480   -1.3255 H   0  0  0  0  0  0  0  0  0  0  0  0
    5.1882    0.9095   -0.3241 H   0  0  0  0  0  0  0  0  0  0  0  0
   -1.0580    3.8068   -1.5819 H   0  0  0  0  0  0  0  0  0  0  0  0
   -0.7631    2.7587   -3.0244 H   0  0  0  0  0  0  0  0  0  0  0  0
   -2.3031    3.6021   -2.8194 H   0  0  0  0  0  0  0  0  0  0  0  0
    1.7613   -1.8850    3.2382 H   0  0  0  0  0  0  0  0  0  0  0  0
    0.8924   -0.3532    3.0530 H   0  0  0  0  0  0  0  0  0  0  0  0
    0.0073   -1.9184    3.0200 H   0  0  0  0  0  0  0  0  0  0  0  0
   -4.7730   -0.6176    1.1633 H   0  0  0  0  0  0  0  0  0  0  0  0
   -3.6232    0.6937    1.5083 H   0  0  0  0  0  0  0  0  0  0  0  0
   -3.5066   -2.1032    2.3742 H   0  0  0  0  0  0  0  0  0  0  0  0
   -2.3298   -0.8279    2.7584 H   0  0  0  0  0  0  0  0  0  0  0  0
    2.7914    0.4060    1.1390 H   0  0  0  0  0  0  0  0  0  0  0  0
    2.6384    1.8392    0.1693 H   0  0  0  0  0  0  0  0  0  0  0  0
   -2.3134   -2.2852   -1.2596 H   0  0  0  0  0  0  0  0  0  0  0  0
   -3.7124   -2.6139   -0.1977 H   0  0  0  0  0  0  0  0  0  0  0  0
    0.6592    2.2483   -1.1786 H   0  0  0  0  0  0  0  0  0  0  0  0
    2.8728   -0.9254   -1.1576 H   0  0  0  0  0  0  0  0  0  0  0  0
   -3.8059   -0.1161   -1.1163 H   0  0  0  0  0  0  0  0  0  0  0  0
   -1.4340   -2.8810    1.1518 H   0  0  0  0  0  0  0  0  0  0  0  0
    3.7093    0.3412   -2.9422 H   0  0  0  0  0  0  0  0  0  0  0  0
    3.7004    1.7336   -2.0963 H   0  0  0  0  0  0  0  0  0  0  0  0
  1  9  1  0
  2 18  1  0
  3 19  1  0
  4  5  1  0
  4 10  1  0
  5 11  1  0
  6  9  1  0
  6 12  1  0
  7 10  1  0
  7 11  1  0
  8 12  2  0
  8 13  1  0
  9 17  1  0
 10 14  1  0
 11 15  1  0
 12 16  1  0
 13 14  2  0
 13 18  1  0
 14 15  1  0
 15 16  2  0
 16 19  1  0
  1 20  1  0
  1 21  1  0
  1 22  1  0
  2 23  1  0
  2 24  1  0
  2 25  1  0
  3 26  1  0
  3 27  1  0
  3 28  1  0
  4 29  1  0
  4 30  1  0
  5 31  1  0
  5 32  1  0
  6 33  1  0
  6 34  1  0
  7 35  1  0
  7 36  1  0
  8 37  1  0
  9 38  1  0
 10 39  1  0
 11 40  1  0
 17 41  1  0
 17 42  1  0
M  END
