
     RDKit          3D

 38 40  0  0  0  0  0  0  0  0999 V2000
   -1.4672   -2.7098    1.0033 C   0  0  0  0  0  0  0  0  0  0  0  0
   -3.1854    0.0505   -2.1360 C   0  0  0  0  0  0  0  0  0  0  0  0
    3.6530    1.0960   -1.5166 C   0  0  0  0  0  0  0  0  0  0  0  0
    4.6844    0.5128   -0.7758 C   0  0  0  0  0  0  0  0  0  0  0  0
    2.3334    0.6783   -1.3318 C   0  0  0  0  0  0  0  0  0  0  0  0
    4.4001   -0.4913    0.1517 C   0  0  0  0  0  0  0  0  0  0  0  0
   -1.9853    2.2649    1.2813 C   0  0  0  0  0  0  0  0  0  0  0  0
   -2.4275    1.4047    0.2705 C   0  0  0  0  0  0  0  0  0  0  0  0
    0.1162    1.0719    1.3387 C   0  0  0  0  0  0  0  0  0  0  0  0
   -0.9472   -2.5594   -0.4175 C   0  0  0  0  0  0  0  0  0  0  0  0
   -0.7126    2.0892    1.8184 C   0  0  0  0  0  0  0  0  0  0  0  0
    2.0536   -0.3263   -0.3986 C   0  0  0  0  0  0  0  0  0  0  0  0
   -0.3286    0.2170    0.3071 C   0  0  0  0  0  0  0  0  0  0  0  0
    3.0855   -0.9098    0.3353 C   0  0  0  0  0  0  0  0  0  0  0  0
   -1.6241    0.3546   -0.2277 C   0  0  0  0  0  0  0  0  0  0  0  0
    0.6531   -0.7769   -0.2012 C   0  0  0  0  0  0  0  0  0  0  0  0
   -1.8883   -1.8549   -1.3937 C   0  0  0  0  0  0  0  0  0  0  0  0
    2.8290   -1.8441    1.2619 F   0  0  0  0  0  0  0  0  0  0  0  0
    0.3987   -1.9980   -0.4989 N   0  0  0  0  0  0  0  0  0  0  0  0
   -2.1642   -0.4942   -1.2433 N   0  0  0  0  0  0  0  0  0  0  0  0
   -0.2393    2.9798    2.8854 N   0  0  0  0  0  4  0  0  0  0  0  0
   -2.4461   -2.5250   -2.2733 O   0  0  0  0  0  0  0  0  0  0  0  0
    0.9270    2.8376    3.2767 O   0  0  0  0  0  1  0  0  0  0  0  0
   -1.0336    3.8226    3.3246 O   0  0  0  0  0  0  0  0  0  0  0  0
   -2.4269   -3.2382    1.0002 H   0  0  0  0  0  0  0  0  0  0  0  0
   -1.6327   -1.7614    1.5177 H   0  0  0  0  0  0  0  0  0  0  0  0
   -0.7623   -3.2892    1.6094 H   0  0  0  0  0  0  0  0  0  0  0  0
   -3.1984   -0.4789   -3.0940 H   0  0  0  0  0  0  0  0  0  0  0  0
   -4.1674   -0.0644   -1.6663 H   0  0  0  0  0  0  0  0  0  0  0  0
   -2.9839    1.1038   -2.3569 H   0  0  0  0  0  0  0  0  0  0  0  0
    3.8814    1.8710   -2.2453 H   0  0  0  0  0  0  0  0  0  0  0  0
    5.7117    0.8386   -0.9239 H   0  0  0  0  0  0  0  0  0  0  0  0
    1.5392    1.1211   -1.9268 H   0  0  0  0  0  0  0  0  0  0  0  0
    5.1939   -0.9486    0.7344 H   0  0  0  0  0  0  0  0  0  0  0  0
   -2.6506    3.0489    1.6394 H   0  0  0  0  0  0  0  0  0  0  0  0
   -3.4435    1.5538   -0.0908 H   0  0  0  0  0  0  0  0  0  0  0  0
    1.1068    0.9357    1.7705 H   0  0  0  0  0  0  0  0  0  0  0  0
   -0.8521   -3.5823   -0.8083 H   0  0  0  0  0  0  0  0  0  0  0  0
  1 10  1  0
  2 20  1  0
  3  4  2  0
  3  5  1  0
  4  6  1  0
  5 12  2  0
  6 14  2  0
  7  8  2  0
  7 11  1  0
  8 15  1  0
  9 11  2  0
  9 13  1  0
 10 17  1  0
 10 19  1  0
 11 21  1  0
 12 14  1  0
 12 16  1  0
 13 15  2  0
 13 16  1  0
 14 18  1  0
 15 20  1  0
 16 19  2  0
 17 20  1  0
 17 22  2  0
 21 23  1  0
 21 24  2  0
  1 25  1  0
  1 26  1  0
  1 27  1  0
  2 28  1  0
  2 29  1  0
  2 30  1  0
  3 31  1  0
  4 32  1  0
  5 33  1  0
  6 34  1  0
  7 35  1  0
  8 36  1  0
  9 37  1  0
 10 38  1  0
M  CHG  2  21   1  23  -1
M  END
