
     RDKit          3D

 38 41  0  0  0  0  0  0  0  0999 V2000
    3.3904   -2.7287   -1.1167 C   0  0  0  0  0  0  0  0  0  0  0  0
    4.1598   -2.1982   -0.0836 C   0  0  0  0  0  0  0  0  0  0  0  0
    2.0626   -2.3220   -1.2789 C   0  0  0  0  0  0  0  0  0  0  0  0
    3.6027   -1.2570    0.7795 C   0  0  0  0  0  0  0  0  0  0  0  0
    1.7311    3.6484    0.6610 C   0  0  0  0  0  0  0  0  0  0  0  0
    2.0698    2.4307    1.2524 C   0  0  0  0  0  0  0  0  0  0  0  0
   -3.0282   -1.8964   -0.3150 C   0  0  0  0  0  0  0  0  0  0  0  0
   -3.1012   -0.2365    1.4190 C   0  0  0  0  0  0  0  0  0  0  0  0
   -2.5265   -0.8411   -1.3254 C   0  0  0  0  0  0  0  0  0  0  0  0
   -2.6035    0.8485    0.4365 C   0  0  0  0  0  0  0  0  0  0  0  0
    0.0515    2.5316   -0.6785 C   0  0  0  0  0  0  0  0  0  0  0  0
    0.7283    3.6913   -0.3068 C   0  0  0  0  0  0  0  0  0  0  0  0
    0.3826    1.3090   -0.0775 C   0  0  0  0  0  0  0  0  0  0  0  0
    1.4873   -1.3705   -0.4294 C   0  0  0  0  0  0  0  0  0  0  0  0
    1.4085    1.2610    0.8671 C   0  0  0  0  0  0  0  0  0  0  0  0
    2.2802   -0.8394    0.5952 C   0  0  0  0  0  0  0  0  0  0  0  0
   -0.4070    0.0890   -0.4399 C   0  0  0  0  0  0  0  0  0  0  0  0
    0.3127    5.1924   -1.0372 Cl  0  0  0  0  0  0  0  0  0  0  0  0
   -3.8661   -1.3164    0.7606 N   0  0  0  0  0  0  0  0  0  0  0  0
    0.1256   -1.0898   -0.6089 N   0  0  0  0  0  0  0  0  0  0  0  0
   -1.7868    0.2461   -0.6426 N   0  0  0  0  0  0  0  0  0  0  0  0
    1.7963    0.0964    1.4797 O   0  0  0  0  0  0  0  0  0  0  0  0
    3.8147   -3.4696   -1.7892 H   0  0  0  0  0  0  0  0  0  0  0  0
    5.1885   -2.5214    0.0518 H   0  0  0  0  0  0  0  0  0  0  0  0
    1.4581   -2.7593   -2.0695 H   0  0  0  0  0  0  0  0  0  0  0  0
    4.1953   -0.8433    1.5901 H   0  0  0  0  0  0  0  0  0  0  0  0
    2.2539    4.5551    0.9547 H   0  0  0  0  0  0  0  0  0  0  0  0
    2.8557    2.3889    2.0021 H   0  0  0  0  0  0  0  0  0  0  0  0
   -2.1831   -2.4266    0.1394 H   0  0  0  0  0  0  0  0  0  0  0  0
   -3.6218   -2.6483   -0.8465 H   0  0  0  0  0  0  0  0  0  0  0  0
   -2.2497   -0.6752    1.9539 H   0  0  0  0  0  0  0  0  0  0  0  0
   -3.7424    0.2305    2.1746 H   0  0  0  0  0  0  0  0  0  0  0  0
   -3.3862   -0.3984   -1.8444 H   0  0  0  0  0  0  0  0  0  0  0  0
   -1.9133   -1.3130   -2.1020 H   0  0  0  0  0  0  0  0  0  0  0  0
   -3.4633    1.3560   -0.0185 H   0  0  0  0  0  0  0  0  0  0  0  0
   -2.0498    1.6110    0.9936 H   0  0  0  0  0  0  0  0  0  0  0  0
   -0.7324    2.5725   -1.4303 H   0  0  0  0  0  0  0  0  0  0  0  0
   -4.6946   -0.9071    0.3297 H   0  0  0  0  0  0  0  0  0  0  0  0
  1  2  2  0
  1  3  1  0
  2  4  1  0
  3 14  2  0
  4 16  2  0
  5  6  1  0
  5 12  2  0
  6 15  2  0
  7  9  1  0
  7 19  1  0
  8 10  1  0
  8 19  1  0
  9 21  1  0
 10 21  1  0
 11 12  1  0
 11 13  2  0
 12 18  1  0
 13 15  1  0
 13 17  1  0
 14 16  1  0
 14 20  1  0
 15 22  1  0
 16 22  1  0
 17 20  2  0
 17 21  1  0
  1 23  1  0
  2 24  1  0
  3 25  1  0
  4 26  1  0
  5 27  1  0
  6 28  1  0
  7 29  1  0
  7 30  1  0
  8 31  1  0
  8 32  1  0
  9 33  1  0
  9 34  1  0
 10 35  1  0
 10 36  1  0
 11 37  1  0
 19 38  1  0
M  END
