
     RDKit          3D

 36 38  0  0  0  0  0  0  0  0999 V2000
    2.2373    0.1471   -2.3803 C   0  0  0  0  0  0  0  0  0  0  0  0
    0.5341   -2.5798    0.2297 C   0  0  0  0  0  0  0  0  0  0  0  0
    1.9136    1.2801   -1.4172 C   0  0  0  0  0  0  0  0  0  0  0  0
    3.6674    0.7738    1.9190 C   0  0  0  0  0  0  0  0  0  0  0  0
   -4.6206    1.0891   -1.0175 C   0  0  0  0  0  0  0  0  0  0  0  0
   -4.8970   -0.2631   -1.2142 C   0  0  0  0  0  0  0  0  0  0  0  0
    2.7178    0.0849    2.6655 C   0  0  0  0  0  0  0  0  0  0  0  0
    3.3785    1.1650    0.6108 C   0  0  0  0  0  0  0  0  0  0  0  0
   -3.3546    1.4814   -0.5846 C   0  0  0  0  0  0  0  0  0  0  0  0
   -3.9073   -1.2212   -0.9776 C   0  0  0  0  0  0  0  0  0  0  0  0
    1.4784   -0.2148    2.1024 C   0  0  0  0  0  0  0  0  0  0  0  0
   -0.4847   -1.4732    0.0476 C   0  0  0  0  0  0  0  0  0  0  0  0
    2.1321    0.8783    0.0242 C   0  0  0  0  0  0  0  0  0  0  0  0
   -2.3695    0.5125   -0.3529 C   0  0  0  0  0  0  0  0  0  0  0  0
   -2.6350   -0.8400   -0.5442 C   0  0  0  0  0  0  0  0  0  0  0  0
    1.1771    0.1724    0.7852 C   0  0  0  0  0  0  0  0  0  0  0  0
   -1.0245    0.8911    0.1156 C   0  0  0  0  0  0  0  0  0  0  0  0
   -1.6745   -1.8312   -0.3235 N   0  0  0  0  0  0  0  0  0  0  0  0
   -0.1072   -0.1558    0.2603 N   0  0  0  0  0  0  0  0  0  0  0  0
   -0.8049    2.0745    0.3708 O   0  0  0  0  0  0  0  0  0  0  0  0
    1.5820   -0.7147   -2.2202 H   0  0  0  0  0  0  0  0  0  0  0  0
    3.2724   -0.1909   -2.2631 H   0  0  0  0  0  0  0  0  0  0  0  0
    2.1051    0.4819   -3.4141 H   0  0  0  0  0  0  0  0  0  0  0  0
    0.5841   -2.8586    1.2857 H   0  0  0  0  0  0  0  0  0  0  0  0
    0.2269   -3.4623   -0.3409 H   0  0  0  0  0  0  0  0  0  0  0  0
    1.5245   -2.2826   -0.1225 H   0  0  0  0  0  0  0  0  0  0  0  0
    0.8886    1.6230   -1.5818 H   0  0  0  0  0  0  0  0  0  0  0  0
    2.5458    2.1451   -1.6553 H   0  0  0  0  0  0  0  0  0  0  0  0
    4.6346    1.0117    2.3548 H   0  0  0  0  0  0  0  0  0  0  0  0
   -5.3897    1.8360   -1.1991 H   0  0  0  0  0  0  0  0  0  0  0  0
   -5.8828   -0.5748   -1.5511 H   0  0  0  0  0  0  0  0  0  0  0  0
    2.9380   -0.2109    3.6879 H   0  0  0  0  0  0  0  0  0  0  0  0
    4.1393    1.6985    0.0437 H   0  0  0  0  0  0  0  0  0  0  0  0
   -3.1369    2.5354   -0.4265 H   0  0  0  0  0  0  0  0  0  0  0  0
   -4.1259   -2.2751   -1.1316 H   0  0  0  0  0  0  0  0  0  0  0  0
    0.7374   -0.7328    2.7070 H   0  0  0  0  0  0  0  0  0  0  0  0
  1  3  1  0
  2 12  1  0
  3 13  1  0
  4  7  2  0
  4  8  1  0
  5  6  2  0
  5  9  1  0
  6 10  1  0
  7 11  1  0
  8 13  2  0
  9 14  2  0
 10 15  2  0
 11 16  2  0
 12 18  2  0
 12 19  1  0
 13 16  1  0
 14 15  1  0
 14 17  1  0
 15 18  1  0
 16 19  1  0
 17 19  1  0
 17 20  2  0
  1 21  1  0
  1 22  1  0
  1 23  1  0
  2 24  1  0
  2 25  1  0
  2 26  1  0
  3 27  1  0
  3 28  1  0
  4 29  1  0
  5 30  1  0
  6 31  1  0
  7 32  1  0
  8 33  1  0
  9 34  1  0
 10 35  1  0
 11 36  1  0
M  END
