
     RDKit          3D

 43 46  0  0  0  0  0  0  0  0999 V2000
    4.9424    2.4210    1.8627 C   0  0  0  0  0  0  0  0  0  0  0  0
    4.4432    0.6213    3.3848 C   0  0  0  0  0  0  0  0  0  0  0  0
   -1.2685    2.5607   -1.6259 C   0  0  0  0  0  0  0  0  0  0  0  0
   -5.2371   -2.6585   -0.8805 C   0  0  0  0  0  0  0  0  0  0  0  0
   -5.7816   -1.6609   -1.6846 C   0  0  0  0  0  0  0  0  0  0  0  0
   -3.9694   -2.4916   -0.3257 C   0  0  0  0  0  0  0  0  0  0  0  0
   -1.0116    0.1245   -1.9684 C   0  0  0  0  0  0  0  0  0  0  0  0
    5.0075    0.1118    1.0667 C   0  0  0  0  0  0  0  0  0  0  0  0
   -1.3892   -1.8675    1.0258 C   0  0  0  0  0  0  0  0  0  0  0  0
   -5.0801   -0.4711   -1.9093 C   0  0  0  0  0  0  0  0  0  0  0  0
   -3.2383   -1.3153   -0.5703 C   0  0  0  0  0  0  0  0  0  0  0  0
   -0.8539   -0.5701   -0.6754 C   0  0  0  0  0  0  0  0  0  0  0  0
    3.6225    0.0397    0.5129 C   0  0  0  0  0  0  0  0  0  0  0  0
   -3.8111   -0.2737   -1.3358 C   0  0  0  0  0  0  0  0  0  0  0  0
    0.2336   -0.7765    0.1547 C   0  0  0  0  0  0  0  0  0  0  0  0
    1.6090   -0.2698    0.0347 C   0  0  0  0  0  0  0  0  0  0  0  0
   -3.2178    1.0941   -1.3731 C   0  0  0  0  0  0  0  0  0  0  0  0
   -5.8294    0.6790   -2.9649 Cl  0  0  0  0  0  0  0  0  0  0  0  0
   -0.1150   -1.6029    1.1995 N   0  0  0  0  0  0  0  0  0  0  0  0
    2.5733   -0.6212    0.9472 N   0  0  0  0  0  0  0  0  0  0  0  0
    2.0315    0.5559   -0.9349 N   0  0  0  0  0  0  0  0  0  0  0  0
    5.2130    1.0278    2.2093 N   0  0  0  0  0  0  0  0  0  0  0  0
   -1.8882    1.2499   -1.7422 N   0  0  0  0  0  0  0  0  0  0  0  0
   -1.9092   -1.2329   -0.0774 N   0  0  0  0  0  0  0  0  0  0  0  0
   -3.9249    2.0339   -1.0173 O   0  0  0  0  0  0  0  0  0  0  0  0
    3.3748    0.7640   -0.6179 O   0  0  0  0  0  0  0  0  0  0  0  0
    3.8862    2.6031    1.6360 H   0  0  0  0  0  0  0  0  0  0  0  0
    5.5403    2.7274    0.9973 H   0  0  0  0  0  0  0  0  0  0  0  0
    5.2294    3.0807    2.6895 H   0  0  0  0  0  0  0  0  0  0  0  0
    4.7259    1.2313    4.2500 H   0  0  0  0  0  0  0  0  0  0  0  0
    4.6621   -0.4184    3.6524 H   0  0  0  0  0  0  0  0  0  0  0  0
    3.3623    0.7235    3.2415 H   0  0  0  0  0  0  0  0  0  0  0  0
   -2.0147    3.3567   -1.5559 H   0  0  0  0  0  0  0  0  0  0  0  0
   -0.6460    2.7415   -2.5073 H   0  0  0  0  0  0  0  0  0  0  0  0
   -0.6469    2.5786   -0.7256 H   0  0  0  0  0  0  0  0  0  0  0  0
   -5.7937   -3.5770   -0.7052 H   0  0  0  0  0  0  0  0  0  0  0  0
   -6.7630   -1.8112   -2.1306 H   0  0  0  0  0  0  0  0  0  0  0  0
   -3.5588   -3.3166    0.2532 H   0  0  0  0  0  0  0  0  0  0  0  0
   -1.4705   -0.5412   -2.7094 H   0  0  0  0  0  0  0  0  0  0  0  0
   -0.0689    0.4665   -2.4011 H   0  0  0  0  0  0  0  0  0  0  0  0
    5.3125   -0.8991    1.3663 H   0  0  0  0  0  0  0  0  0  0  0  0
    5.7025    0.3917    0.2646 H   0  0  0  0  0  0  0  0  0  0  0  0
   -1.9839   -2.4808    1.6896 H   0  0  0  0  0  0  0  0  0  0  0  0
  1 22  1  0
  2 22  1  0
  3 23  1  0
  4  5  2  0
  4  6  1  0
  5 10  1  0
  6 11  2  0
  7 12  1  0
  7 23  1  0
  8 13  1  0
  8 22  1  0
  9 19  2  0
  9 24  1  0
 10 14  2  0
 10 18  1  0
 11 14  1  0
 11 24  1  0
 12 15  2  0
 12 24  1  0
 13 20  2  0
 13 26  1  0
 14 17  1  0
 15 16  1  0
 15 19  1  0
 16 20  1  0
 16 21  2  0
 17 23  1  0
 17 25  2  0
 21 26  1  0
  1 27  1  0
  1 28  1  0
  1 29  1  0
  2 30  1  0
  2 31  1  0
  2 32  1  0
  3 33  1  0
  3 34  1  0
  3 35  1  0
  4 36  1  0
  5 37  1  0
  6 38  1  0
  7 39  1  0
  7 40  1  0
  8 41  1  0
  8 42  1  0
  9 43  1  0
M  END
