
     RDKit          3D

 41 43  0  0  0  0  0  0  0  0999 V2000
   -3.2430   -1.4807   -0.2700 C   0  0  0  0  0  0  0  0  0  0  0  0
   -4.8720   -0.7565   -1.9447 C   0  0  0  0  0  0  0  0  0  0  0  0
    2.3194   -3.8249    0.9662 C   0  0  0  0  0  0  0  0  0  0  0  0
    1.2661   -3.1004    1.5247 C   0  0  0  0  0  0  0  0  0  0  0  0
    3.3141   -3.1687    0.2410 C   0  0  0  0  0  0  0  0  0  0  0  0
    1.1994   -1.7167    1.3505 C   0  0  0  0  0  0  0  0  0  0  0  0
    3.2527   -1.7857    0.0653 C   0  0  0  0  0  0  0  0  0  0  0  0
   -1.7196    2.1501   -0.3726 C   0  0  0  0  0  0  0  0  0  0  0  0
   -0.8526    2.7712    0.5280 C   0  0  0  0  0  0  0  0  0  0  0  0
   -0.0492    0.4402   -0.7777 C   0  0  0  0  0  0  0  0  0  0  0  0
    3.2526    2.5226    0.3238 C   0  0  0  0  0  0  0  0  0  0  0  0
    2.1868   -1.0583    0.6062 C   0  0  0  0  0  0  0  0  0  0  0  0
   -1.3108    0.9855   -1.0207 C   0  0  0  0  0  0  0  0  0  0  0  0
    0.8090    1.0576    0.1488 C   0  0  0  0  0  0  0  0  0  0  0  0
    0.4234    2.2501    0.7923 C   0  0  0  0  0  0  0  0  0  0  0  0
    2.4692    3.1004    1.4739 C   0  0  0  0  0  0  0  0  0  0  0  0
    2.1386    0.4235    0.4033 C   0  0  0  0  0  0  0  0  0  0  0  0
    3.2613    1.0635    0.4525 N   0  0  0  0  0  0  0  0  0  0  0  0
    1.2068    2.9712    1.7111 N   0  0  0  0  0  0  0  0  0  0  0  0
   -3.6526   -0.3919   -1.1859 N   0  0  0  0  0  0  0  0  0  0  0  0
    3.1841    3.8249    2.3458 O   0  0  0  0  0  0  0  0  0  0  0  0
   -2.9563    1.2767   -3.0096 O   0  0  0  0  0  0  0  0  0  0  0  0
   -1.7269   -0.9145   -2.7783 O   0  0  0  0  0  0  0  0  0  0  0  0
   -2.4072    0.2192   -2.1890 S   0  0  0  0  0  6  0  0  0  0  0  0
   -2.9732   -2.3841   -0.8249 H   0  0  0  0  0  0  0  0  0  0  0  0
   -4.0701   -1.7238    0.4054 H   0  0  0  0  0  0  0  0  0  0  0  0
   -2.4037   -1.1718    0.3579 H   0  0  0  0  0  0  0  0  0  0  0  0
   -5.2621    0.1114   -2.4842 H   0  0  0  0  0  0  0  0  0  0  0  0
   -5.6572   -1.0833   -1.2550 H   0  0  0  0  0  0  0  0  0  0  0  0
   -4.6676   -1.5681   -2.6495 H   0  0  0  0  0  0  0  0  0  0  0  0
    2.3731   -4.9020    1.1061 H   0  0  0  0  0  0  0  0  0  0  0  0
    0.5042   -3.6138    2.1058 H   0  0  0  0  0  0  0  0  0  0  0  0
    4.1415   -3.7322   -0.1829 H   0  0  0  0  0  0  0  0  0  0  0  0
    0.3891   -1.1636    1.8172 H   0  0  0  0  0  0  0  0  0  0  0  0
    4.0353   -1.2771   -0.4932 H   0  0  0  0  0  0  0  0  0  0  0  0
   -2.6998    2.5801   -0.5695 H   0  0  0  0  0  0  0  0  0  0  0  0
   -1.1675    3.6847    1.0295 H   0  0  0  0  0  0  0  0  0  0  0  0
    0.2666   -0.4550   -1.3104 H   0  0  0  0  0  0  0  0  0  0  0  0
    2.8359    2.8509   -0.6345 H   0  0  0  0  0  0  0  0  0  0  0  0
    4.2845    2.8861    0.3697 H   0  0  0  0  0  0  0  0  0  0  0  0
    2.5775    4.1033    3.0514 H   0  0  0  0  0  0  0  0  0  0  0  0
  1 20  1  0
  2 20  1  0
  3  4  2  0
  3  5  1  0
  4  6  1  0
  5  7  2  0
  6 12  2  0
  7 12  1  0
  8  9  2  0
  8 13  1  0
  9 15  1  0
 10 13  2  0
 10 14  1  0
 11 16  1  0
 11 18  1  0
 12 17  1  0
 13 24  1  0
 14 15  2  0
 14 17  1  0
 15 19  1  0
 16 19  2  0
 16 21  1  0
 17 18  2  0
 20 24  1  0
 22 24  2  0
 23 24  2  0
  1 25  1  0
  1 26  1  0
  1 27  1  0
  2 28  1  0
  2 29  1  0
  2 30  1  0
  3 31  1  0
  4 32  1  0
  5 33  1  0
  6 34  1  0
  7 35  1  0
  8 36  1  0
  9 37  1  0
 10 38  1  0
 11 39  1  0
 11 40  1  0
 21 41  1  0
M  END
