
     RDKit          3D

 37 38  0  0  0  0  0  0  0  0999 V2000
    1.0210   -1.9876    0.9966 C   0  0  0  0  0  0  0  0  0  0  0  0
    5.5287    0.6777    0.3053 C   0  0  0  0  0  0  0  0  0  0  0  0
   -5.5958   -0.0625   -1.3661 C   0  0  0  0  0  0  0  0  0  0  0  0
    4.5376    1.4952    0.8443 C   0  0  0  0  0  0  0  0  0  0  0  0
    5.1789   -0.3773   -0.5350 C   0  0  0  0  0  0  0  0  0  0  0  0
   -4.7418    0.8636   -1.9613 C   0  0  0  0  0  0  0  0  0  0  0  0
   -5.1727   -0.7845   -0.2526 C   0  0  0  0  0  0  0  0  0  0  0  0
    3.1954    1.2581    0.5444 C   0  0  0  0  0  0  0  0  0  0  0  0
    3.8372   -0.6168   -0.8363 C   0  0  0  0  0  0  0  0  0  0  0  0
   -3.4611    1.0699   -1.4443 C   0  0  0  0  0  0  0  0  0  0  0  0
   -3.8936   -0.5813    0.2671 C   0  0  0  0  0  0  0  0  0  0  0  0
    1.3785   -0.0623   -0.6200 C   0  0  0  0  0  0  0  0  0  0  0  0
   -1.6926    1.2591    1.5643 C   0  0  0  0  0  0  0  0  0  0  0  0
    0.5539   -0.5860    0.5816 C   0  0  0  0  0  0  0  0  0  0  0  0
    2.8317    0.1972   -0.2973 C   0  0  0  0  0  0  0  0  0  0  0  0
   -3.0184    0.3488   -0.3224 C   0  0  0  0  0  0  0  0  0  0  0  0
   -1.6182    0.5799    0.2407 C   0  0  0  0  0  0  0  0  0  0  0  0
   -1.7178    1.8108    2.5876 N   0  0  0  0  0  0  0  0  0  0  0  0
   -0.8829   -0.7052    0.2696 N   0  0  0  0  0  0  0  0  0  0  0  0
    0.9508   -2.6989    0.1657 H   0  0  0  0  0  0  0  0  0  0  0  0
    2.0595   -1.9731    1.3430 H   0  0  0  0  0  0  0  0  0  0  0  0
    0.4134   -2.3735    1.8236 H   0  0  0  0  0  0  0  0  0  0  0  0
    6.5735    0.8628    0.5403 H   0  0  0  0  0  0  0  0  0  0  0  0
   -6.5934   -0.2199   -1.7682 H   0  0  0  0  0  0  0  0  0  0  0  0
    4.8098    2.3184    1.5000 H   0  0  0  0  0  0  0  0  0  0  0  0
    5.9521   -1.0152   -0.9554 H   0  0  0  0  0  0  0  0  0  0  0  0
   -5.0760    1.4284   -2.8282 H   0  0  0  0  0  0  0  0  0  0  0  0
   -5.8393   -1.5054    0.2141 H   0  0  0  0  0  0  0  0  0  0  0  0
    2.4365    1.9084    0.9744 H   0  0  0  0  0  0  0  0  0  0  0  0
    3.5840   -1.4468   -1.4922 H   0  0  0  0  0  0  0  0  0  0  0  0
   -2.8159    1.8019   -1.9258 H   0  0  0  0  0  0  0  0  0  0  0  0
   -3.5787   -1.1549    1.1381 H   0  0  0  0  0  0  0  0  0  0  0  0
    0.9633    0.8815   -0.9933 H   0  0  0  0  0  0  0  0  0  0  0  0
    1.3029   -0.7681   -1.4580 H   0  0  0  0  0  0  0  0  0  0  0  0
    0.6945    0.0668    1.4510 H   0  0  0  0  0  0  0  0  0  0  0  0
   -1.1025    1.2590   -0.4482 H   0  0  0  0  0  0  0  0  0  0  0  0
   -1.0024   -1.1684   -0.6310 H   0  0  0  0  0  0  0  0  0  0  0  0
  1 14  1  0
  2  4  2  0
  2  5  1  0
  3  6  2  0
  3  7  1  0
  4  8  1  0
  5  9  2  0
  6 10  1  0
  7 11  2  0
  8 15  2  0
  9 15  1  0
 10 16  2  0
 11 16  1  0
 12 14  1  0
 12 15  1  0
 13 17  1  0
 13 18  3  0
 14 19  1  0
 16 17  1  0
 17 19  1  0
  1 20  1  0
  1 21  1  0
  1 22  1  0
  2 23  1  0
  3 24  1  0
  4 25  1  0
  5 26  1  0
  6 27  1  0
  7 28  1  0
  8 29  1  0
  9 30  1  0
 10 31  1  0
 11 32  1  0
 12 33  1  0
 12 34  1  0
 14 35  1  0
 17 36  1  0
 19 37  1  0
M  END
