
     RDKit          3D

 43 45  0  0  0  0  0  0  0  0999 V2000
    4.1759    2.5080   -1.5155 C   0  0  0  0  0  0  0  0  0  0  0  0
   -3.9087   -1.1920   -0.9900 C   0  0  0  0  0  0  0  0  0  0  0  0
   -1.0892    3.6558    0.5332 C   0  0  0  0  0  0  0  0  0  0  0  0
    2.3198   -0.8036    0.5324 C   0  0  0  0  0  0  0  0  0  0  0  0
   -1.7742   -2.9578    0.3061 C   0  0  0  0  0  0  0  0  0  0  0  0
    3.6799   -0.5504    0.7158 C   0  0  0  0  0  0  0  0  0  0  0  0
   -2.2506   -1.9772    1.3720 C   0  0  0  0  0  0  0  0  0  0  0  0
    2.1819    1.0806   -0.9690 C   0  0  0  0  0  0  0  0  0  0  0  0
   -0.2045   -1.6154   -1.1845 C   0  0  0  0  0  0  0  0  0  0  0  0
    3.5505    1.3479   -0.7935 C   0  0  0  0  0  0  0  0  0  0  0  0
    1.5534    0.0080   -0.3140 C   0  0  0  0  0  0  0  0  0  0  0  0
   -1.6478   -2.1197   -0.9746 C   0  0  0  0  0  0  0  0  0  0  0  0
    0.0642   -0.2369   -0.5240 C   0  0  0  0  0  0  0  0  0  0  0  0
    4.2922    0.5176    0.0575 C   0  0  0  0  0  0  0  0  0  0  0  0
   -2.1965   -0.6120    0.6757 C   0  0  0  0  0  0  0  0  0  0  0  0
   -0.7620   -0.0258    0.7712 C   0  0  0  0  0  0  0  0  0  0  0  0
   -0.8694    1.4242    1.2041 C   0  0  0  0  0  0  0  0  0  0  0  0
    5.9790    0.7745    0.3290 Cl  0  0  0  0  0  0  0  0  0  0  0  0
   -2.4922   -0.9378   -0.7379 N   0  0  0  0  0  0  0  0  0  0  0  0
   -0.9288    1.7584    2.3832 O   0  0  0  0  0  0  0  0  0  0  0  0
   -0.9605    2.2847    0.1570 O   0  0  0  0  0  0  0  0  0  0  0  0
    3.4434    3.0390   -2.1328 H   0  0  0  0  0  0  0  0  0  0  0  0
    4.5837    3.2284   -0.7992 H   0  0  0  0  0  0  0  0  0  0  0  0
    4.9726    2.1593   -2.1804 H   0  0  0  0  0  0  0  0  0  0  0  0
   -4.3202   -2.0288   -0.4168 H   0  0  0  0  0  0  0  0  0  0  0  0
   -4.0644   -1.4054   -2.0533 H   0  0  0  0  0  0  0  0  0  0  0  0
   -4.4982   -0.2979   -0.7598 H   0  0  0  0  0  0  0  0  0  0  0  0
   -2.0151    3.8132    1.0952 H   0  0  0  0  0  0  0  0  0  0  0  0
   -1.1328    4.2548   -0.3807 H   0  0  0  0  0  0  0  0  0  0  0  0
   -0.2205    3.9774    1.1162 H   0  0  0  0  0  0  0  0  0  0  0  0
    1.8678   -1.6411    1.0589 H   0  0  0  0  0  0  0  0  0  0  0  0
   -0.8339   -3.4374    0.5964 H   0  0  0  0  0  0  0  0  0  0  0  0
   -2.5226   -3.7488    0.1789 H   0  0  0  0  0  0  0  0  0  0  0  0
    4.2584   -1.1910    1.3767 H   0  0  0  0  0  0  0  0  0  0  0  0
   -3.2794   -2.2204    1.6645 H   0  0  0  0  0  0  0  0  0  0  0  0
   -1.6413   -2.0311    2.2798 H   0  0  0  0  0  0  0  0  0  0  0  0
    1.5944    1.7219   -1.6256 H   0  0  0  0  0  0  0  0  0  0  0  0
   -0.0231   -1.5028   -2.2627 H   0  0  0  0  0  0  0  0  0  0  0  0
    0.5079   -2.3775   -0.8476 H   0  0  0  0  0  0  0  0  0  0  0  0
   -1.9485   -2.7015   -1.8538 H   0  0  0  0  0  0  0  0  0  0  0  0
   -0.2785    0.4994   -1.2656 H   0  0  0  0  0  0  0  0  0  0  0  0
   -2.9355    0.0741    1.1066 H   0  0  0  0  0  0  0  0  0  0  0  0
   -0.2265   -0.5150    1.5964 H   0  0  0  0  0  0  0  0  0  0  0  0
  1 10  1  0
  2 19  1  0
  3 21  1  0
  4  6  2  0
  4 11  1  0
  5  7  1  0
  5 12  1  0
  6 14  1  0
  7 15  1  0
  8 10  1  0
  8 11  2  0
  9 12  1  0
  9 13  1  0
 10 14  2  0
 11 13  1  0
 12 19  1  0
 13 16  1  0
 14 18  1  0
 15 16  1  0
 15 19  1  0
 16 17  1  0
 17 20  2  0
 17 21  1  0
  1 22  1  0
  1 23  1  0
  1 24  1  0
  2 25  1  0
  2 26  1  0
  2 27  1  0
  3 28  1  0
  3 29  1  0
  3 30  1  0
  4 31  1  0
  5 32  1  0
  5 33  1  0
  6 34  1  0
  7 35  1  0
  7 36  1  0
  8 37  1  0
  9 38  1  0
  9 39  1  0
 12 40  1  0
 13 41  1  0
 15 42  1  0
 16 43  1  0
M  END
