
     RDKit          3D

 44 45  0  0  0  0  0  0  0  0999 V2000
    2.1306   -1.1540    2.5988 C   0  0  0  0  0  0  0  0  0  0  0  0
    4.3777   -0.2583    2.0011 C   0  0  0  0  0  0  0  0  0  0  0  0
    2.4545    1.3187    2.1201 C   0  0  0  0  0  0  0  0  0  0  0  0
   -1.7705    1.0031   -4.0378 C   0  0  0  0  0  0  0  0  0  0  0  0
   -1.2180    2.2713   -4.1307 C   0  0  0  0  0  0  0  0  0  0  0  0
   -3.1177   -1.5812    1.1408 C   0  0  0  0  0  0  0  0  0  0  0  0
   -2.7125   -1.9095   -0.2978 C   0  0  0  0  0  0  0  0  0  0  0  0
   -1.6684    0.2770   -2.8462 C   0  0  0  0  0  0  0  0  0  0  0  0
   -0.5721    2.8160   -3.0268 C   0  0  0  0  0  0  0  0  0  0  0  0
   -2.3243   -0.4281    1.7401 C   0  0  0  0  0  0  0  0  0  0  0  0
   -1.2426   -1.5769   -0.5627 C   0  0  0  0  0  0  0  0  0  0  0  0
   -0.9990    0.7882   -1.7105 C   0  0  0  0  0  0  0  0  0  0  0  0
   -0.4658    2.0943   -1.8278 C   0  0  0  0  0  0  0  0  0  0  0  0
   -1.9129    0.5254    0.6416 C   0  0  0  0  0  0  0  0  0  0  0  0
    1.5144   -0.3436   -0.2941 C   0  0  0  0  0  0  0  0  0  0  0  0
    2.8681   -0.1096    1.7541 C   0  0  0  0  0  0  0  0  0  0  0  0
   -0.9039   -0.0477   -0.4126 C   0  0  0  0  0  0  0  0  0  0  0  0
    0.3545    2.9176   -0.5456 Cl  0  0  0  0  0  0  0  0  0  0  0  0
    0.4126   -0.0120    0.2513 N   0  0  0  0  0  0  0  0  0  0  0  0
   -2.3902    1.6609    0.6083 O   0  0  0  0  0  0  0  0  0  0  0  0
    1.6884   -0.7348   -1.5643 O   0  0  0  0  0  0  0  0  0  0  0  0
    2.7040   -0.3770    0.3359 O   0  0  0  0  0  0  0  0  0  0  0  0
    1.0449   -1.0588    2.5094 H   0  0  0  0  0  0  0  0  0  0  0  0
    2.3818   -1.0577    3.6606 H   0  0  0  0  0  0  0  0  0  0  0  0
    2.3837   -2.1686    2.2713 H   0  0  0  0  0  0  0  0  0  0  0  0
    4.6376   -0.0886    3.0513 H   0  0  0  0  0  0  0  0  0  0  0  0
    4.7228   -1.2593    1.7168 H   0  0  0  0  0  0  0  0  0  0  0  0
    4.9443    0.4502    1.3855 H   0  0  0  0  0  0  0  0  0  0  0  0
    1.3701    1.4538    2.0793 H   0  0  0  0  0  0  0  0  0  0  0  0
    2.8946    2.0421    1.4250 H   0  0  0  0  0  0  0  0  0  0  0  0
    2.7712    1.5762    3.1368 H   0  0  0  0  0  0  0  0  0  0  0  0
   -2.2944    0.5769   -4.8908 H   0  0  0  0  0  0  0  0  0  0  0  0
   -1.3004    2.8419   -5.0520 H   0  0  0  0  0  0  0  0  0  0  0  0
   -2.9862   -2.4657    1.7757 H   0  0  0  0  0  0  0  0  0  0  0  0
   -4.1896   -1.3493    1.1604 H   0  0  0  0  0  0  0  0  0  0  0  0
   -2.8976   -2.9721   -0.4930 H   0  0  0  0  0  0  0  0  0  0  0  0
   -3.3553   -1.3522   -0.9886 H   0  0  0  0  0  0  0  0  0  0  0  0
   -2.1449   -0.6995   -2.8393 H   0  0  0  0  0  0  0  0  0  0  0  0
   -0.1545    3.8182   -3.0992 H   0  0  0  0  0  0  0  0  0  0  0  0
   -1.4215   -0.7886    2.2441 H   0  0  0  0  0  0  0  0  0  0  0  0
   -2.9192    0.1013    2.4916 H   0  0  0  0  0  0  0  0  0  0  0  0
   -0.9366   -1.9626   -1.5417 H   0  0  0  0  0  0  0  0  0  0  0  0
   -0.6523   -2.1622    0.1584 H   0  0  0  0  0  0  0  0  0  0  0  0
    0.8948   -0.6151   -2.0968 H   0  0  0  0  0  0  0  0  0  0  0  0
  1 16  1  0
  2 16  1  0
  3 16  1  0
  4  5  2  0
  4  8  1  0
  5  9  1  0
  6  7  1  0
  6 10  1  0
  7 11  1  0
  8 12  2  0
  9 13  2  0
 10 14  1  0
 11 17  1  0
 12 13  1  0
 12 17  1  0
 13 18  1  0
 14 17  1  0
 14 20  2  0
 15 19  2  3
 15 21  1  0
 15 22  1  0
 16 22  1  0
 17 19  1  0
  1 23  1  0
  1 24  1  0
  1 25  1  0
  2 26  1  0
  2 27  1  0
  2 28  1  0
  3 29  1  0
  3 30  1  0
  3 31  1  0
  4 32  1  0
  5 33  1  0
  6 34  1  0
  6 35  1  0
  7 36  1  0
  7 37  1  0
  8 38  1  0
  9 39  1  0
 10 40  1  0
 10 41  1  0
 11 42  1  0
 11 43  1  0
 21 44  1  0
M  END
