
     RDKit          3D

 44 46  0  0  0  0  0  0  0  0999 V2000
   -3.3169   -1.7722    2.4319 C   0  0  0  0  0  0  0  0  0  0  0  0
   -2.1975    3.5598   -1.2766 C   0  0  0  0  0  0  0  0  0  0  0  0
    6.3487    1.2172    0.6067 C   0  0  0  0  0  0  0  0  0  0  0  0
    1.9059    0.5760    0.9176 C   0  0  0  0  0  0  0  0  0  0  0  0
    1.9382    0.2970   -1.4748 C   0  0  0  0  0  0  0  0  0  0  0  0
   -2.2473   -2.7003   -0.2462 C   0  0  0  0  0  0  0  0  0  0  0  0
    3.1386    1.2335    0.8570 C   0  0  0  0  0  0  0  0  0  0  0  0
    3.1697    0.9560   -1.5343 C   0  0  0  0  0  0  0  0  0  0  0  0
   -2.9662   -1.3845   -0.5428 C   0  0  0  0  0  0  0  0  0  0  0  0
   -0.0229   -1.8805    0.6823 C   0  0  0  0  0  0  0  0  0  0  0  0
    1.2937    0.0909   -0.2469 C   0  0  0  0  0  0  0  0  0  0  0  0
   -1.4301   -2.4148    1.0153 C   0  0  0  0  0  0  0  0  0  0  0  0
    3.7837    1.4159   -0.3679 C   0  0  0  0  0  0  0  0  0  0  0  0
   -0.0569   -0.6129   -0.2101 C   0  0  0  0  0  0  0  0  0  0  0  0
   -2.4986   -0.4201    0.5585 C   0  0  0  0  0  0  0  0  0  0  0  0
   -1.2032    0.3437    0.2054 C   0  0  0  0  0  0  0  0  0  0  0  0
   -1.5025    1.3582   -0.8814 C   0  0  0  0  0  0  0  0  0  0  0  0
   -2.1472   -1.3136    1.6846 N   0  0  0  0  0  0  0  0  0  0  0  0
   -1.4247    1.1464   -2.0845 O   0  0  0  0  0  0  0  0  0  0  0  0
   -1.9097    2.5349   -0.3249 O   0  0  0  0  0  0  0  0  0  0  0  0
    5.3487    2.2628   -0.4849 S   0  0  0  0  0  0  0  0  0  0  0  0
   -3.0041   -2.4342    3.2469 H   0  0  0  0  0  0  0  0  0  0  0  0
   -4.0510   -2.3095    1.8229 H   0  0  0  0  0  0  0  0  0  0  0  0
   -3.8221   -0.9188    2.8973 H   0  0  0  0  0  0  0  0  0  0  0  0
   -3.0329    3.2620   -1.9179 H   0  0  0  0  0  0  0  0  0  0  0  0
   -1.3101    3.7887   -1.8752 H   0  0  0  0  0  0  0  0  0  0  0  0
   -2.4862    4.4604   -0.7277 H   0  0  0  0  0  0  0  0  0  0  0  0
    6.0098    1.2972    1.6428 H   0  0  0  0  0  0  0  0  0  0  0  0
    6.3017    0.1725    0.2870 H   0  0  0  0  0  0  0  0  0  0  0  0
    7.3900    1.5473    0.5601 H   0  0  0  0  0  0  0  0  0  0  0  0
    1.4249    0.4563    1.8864 H   0  0  0  0  0  0  0  0  0  0  0  0
    1.4803   -0.0427   -2.4024 H   0  0  0  0  0  0  0  0  0  0  0  0
   -1.6273   -3.0255   -1.0880 H   0  0  0  0  0  0  0  0  0  0  0  0
   -2.9876   -3.4872   -0.0592 H   0  0  0  0  0  0  0  0  0  0  0  0
    3.5772    1.6127    1.7761 H   0  0  0  0  0  0  0  0  0  0  0  0
    3.6424    1.1069   -2.5021 H   0  0  0  0  0  0  0  0  0  0  0  0
   -4.0499   -1.5409   -0.4769 H   0  0  0  0  0  0  0  0  0  0  0  0
   -2.7552   -1.0316   -1.5557 H   0  0  0  0  0  0  0  0  0  0  0  0
    0.5616   -2.6611    0.1782 H   0  0  0  0  0  0  0  0  0  0  0  0
    0.4964   -1.6790    1.6280 H   0  0  0  0  0  0  0  0  0  0  0  0
   -1.3304   -3.3036    1.6486 H   0  0  0  0  0  0  0  0  0  0  0  0
   -0.2606   -0.9677   -1.2304 H   0  0  0  0  0  0  0  0  0  0  0  0
   -3.2870    0.2955    0.8218 H   0  0  0  0  0  0  0  0  0  0  0  0
   -0.8834    0.9093    1.0929 H   0  0  0  0  0  0  0  0  0  0  0  0
  1 18  1  0
  2 20  1  0
  3 21  1  0
  4  7  2  0
  4 11  1  0
  5  8  1  0
  5 11  2  0
  6  9  1  0
  6 12  1  0
  7 13  1  0
  8 13  2  0
  9 15  1  0
 10 12  1  0
 10 14  1  0
 11 14  1  0
 12 18  1  0
 13 21  1  0
 14 16  1  0
 15 16  1  0
 15 18  1  0
 16 17  1  0
 17 19  2  0
 17 20  1  0
  1 22  1  0
  1 23  1  0
  1 24  1  0
  2 25  1  0
  2 26  1  0
  2 27  1  0
  3 28  1  0
  3 29  1  0
  3 30  1  0
  4 31  1  0
  5 32  1  0
  6 33  1  0
  6 34  1  0
  7 35  1  0
  8 36  1  0
  9 37  1  0
  9 38  1  0
 10 39  1  0
 10 40  1  0
 12 41  1  0
 14 42  1  0
 15 43  1  0
 16 44  1  0
M  END
