
     RDKit          3D

 44 45  0  0  0  0  0  0  0  0999 V2000
   -1.8634   -1.7690   -2.1365 C   0  0  0  0  0  0  0  0  0  0  0  0
   -3.6772   -2.2703   -0.4931 C   0  0  0  0  0  0  0  0  0  0  0  0
    3.3681    0.2196    2.2034 C   0  0  0  0  0  0  0  0  0  0  0  0
    4.3581   -1.4114   -1.0791 C   0  0  0  0  0  0  0  0  0  0  0  0
    3.1291   -1.7792   -1.6156 C   0  0  0  0  0  0  0  0  0  0  0  0
   -2.0877    3.3103    0.5100 C   0  0  0  0  0  0  0  0  0  0  0  0
   -0.6268    3.6226    0.7966 C   0  0  0  0  0  0  0  0  0  0  0  0
    4.4143   -0.7608    0.1536 C   0  0  0  0  0  0  0  0  0  0  0  0
    1.9531   -1.4903   -0.9226 C   0  0  0  0  0  0  0  0  0  0  0  0
   -2.1029    1.8556    0.0660 C   0  0  0  0  0  0  0  0  0  0  0  0
    0.1155    2.3189    0.5456 C   0  0  0  0  0  0  0  0  0  0  0  0
   -1.5900   -1.1349    0.3240 C   0  0  0  0  0  0  0  0  0  0  0  0
   -2.5637   -1.2853   -0.8655 C   0  0  0  0  0  0  0  0  0  0  0  0
    3.2406   -0.4520    0.8629 C   0  0  0  0  0  0  0  0  0  0  0  0
    1.9960   -0.8169    0.3085 C   0  0  0  0  0  0  0  0  0  0  0  0
   -0.4988   -0.0388    0.1944 C   0  0  0  0  0  0  0  0  0  0  0  0
    0.7144   -0.5357    1.0262 C   0  0  0  0  0  0  0  0  0  0  0  0
   -0.9178    1.2899    0.7058 N   0  0  0  0  0  0  0  0  0  0  0  0
    0.6633   -0.7183    2.2423 O   0  0  0  0  0  0  0  0  0  0  0  0
   -1.1440   -1.0319   -2.5037 H   0  0  0  0  0  0  0  0  0  0  0  0
   -2.5902   -1.9361   -2.9391 H   0  0  0  0  0  0  0  0  0  0  0  0
   -1.3327   -2.7113   -1.9640 H   0  0  0  0  0  0  0  0  0  0  0  0
   -4.3964   -2.3734   -1.3127 H   0  0  0  0  0  0  0  0  0  0  0  0
   -3.2724   -3.2635   -0.2707 H   0  0  0  0  0  0  0  0  0  0  0  0
   -4.2262   -1.9214    0.3880 H   0  0  0  0  0  0  0  0  0  0  0  0
    3.1890   -0.5019    3.0065 H   0  0  0  0  0  0  0  0  0  0  0  0
    2.6698    1.0557    2.2949 H   0  0  0  0  0  0  0  0  0  0  0  0
    4.3723    0.6346    2.3447 H   0  0  0  0  0  0  0  0  0  0  0  0
    5.2771   -1.6432   -1.6122 H   0  0  0  0  0  0  0  0  0  0  0  0
    3.0870   -2.3039   -2.5669 H   0  0  0  0  0  0  0  0  0  0  0  0
   -2.6807    3.4432    1.4228 H   0  0  0  0  0  0  0  0  0  0  0  0
   -2.5028    3.9706   -0.2580 H   0  0  0  0  0  0  0  0  0  0  0  0
   -0.5124    3.9436    1.8385 H   0  0  0  0  0  0  0  0  0  0  0  0
   -0.2509    4.4259    0.1548 H   0  0  0  0  0  0  0  0  0  0  0  0
    5.3878   -0.4990    0.5648 H   0  0  0  0  0  0  0  0  0  0  0  0
    1.0121   -1.8252   -1.3475 H   0  0  0  0  0  0  0  0  0  0  0  0
   -2.0325    1.8049   -1.0277 H   0  0  0  0  0  0  0  0  0  0  0  0
   -3.0276    1.3706    0.3916 H   0  0  0  0  0  0  0  0  0  0  0  0
    0.5277    2.3191   -0.4716 H   0  0  0  0  0  0  0  0  0  0  0  0
    0.9385    2.2042    1.2553 H   0  0  0  0  0  0  0  0  0  0  0  0
   -1.1100   -2.1109    0.4855 H   0  0  0  0  0  0  0  0  0  0  0  0
   -2.1668   -0.9489    1.2410 H   0  0  0  0  0  0  0  0  0  0  0  0
   -3.0415   -0.3283   -1.0897 H   0  0  0  0  0  0  0  0  0  0  0  0
   -0.1985    0.0727   -0.8513 H   0  0  0  0  0  0  0  0  0  0  0  0
  1 13  1  0
  2 13  1  0
  3 14  1  0
  4  5  2  0
  4  8  1  0
  5  9  1  0
  6  7  1  0
  6 10  1  0
  7 11  1  0
  8 14  2  0
  9 15  2  0
 10 18  1  0
 11 18  1  0
 12 13  1  0
 12 16  1  0
 14 15  1  0
 15 17  1  0
 16 17  1  0
 16 18  1  0
 17 19  2  0
  1 20  1  0
  1 21  1  0
  1 22  1  0
  2 23  1  0
  2 24  1  0
  2 25  1  0
  3 26  1  0
  3 27  1  0
  3 28  1  0
  4 29  1  0
  5 30  1  0
  6 31  1  0
  6 32  1  0
  7 33  1  0
  7 34  1  0
  8 35  1  0
  9 36  1  0
 10 37  1  0
 10 38  1  0
 11 39  1  0
 11 40  1  0
 12 41  1  0
 12 42  1  0
 13 43  1  0
 16 44  1  0
M  END
