
     RDKit          3D

 44 46  0  0  0  0  0  0  0  0999 V2000
    5.3810   -0.3596   -0.0175 C   0  0  0  0  0  0  0  0  0  0  0  0
   -1.5197    3.2060    0.1155 C   0  0  0  0  0  0  0  0  0  0  0  0
   -0.9362    2.4136    1.2820 C   0  0  0  0  0  0  0  0  0  0  0  0
   -1.8384    2.3483   -1.1024 C   0  0  0  0  0  0  0  0  0  0  0  0
    3.1618   -0.4563   -1.1957 C   0  0  0  0  0  0  0  0  0  0  0  0
    3.2133    0.2705    1.0938 C   0  0  0  0  0  0  0  0  0  0  0  0
    1.7733   -0.2960   -1.2076 C   0  0  0  0  0  0  0  0  0  0  0  0
    1.8214    0.4299    1.0811 C   0  0  0  0  0  0  0  0  0  0  0  0
   -1.1391    0.9028    1.1386 C   0  0  0  0  0  0  0  0  0  0  0  0
   -0.7589    1.2947   -1.3558 C   0  0  0  0  0  0  0  0  0  0  0  0
   -0.6907   -2.0986    0.5529 C   0  0  0  0  0  0  0  0  0  0  0  0
   -2.4589   -1.1582   -0.8274 C   0  0  0  0  0  0  0  0  0  0  0  0
   -1.4277   -3.4142    0.2518 C   0  0  0  0  0  0  0  0  0  0  0  0
   -3.3258   -1.9698    0.1519 C   0  0  0  0  0  0  0  0  0  0  0  0
    3.8958   -0.1577   -0.0474 C   0  0  0  0  0  0  0  0  0  0  0  0
    1.0689    0.1675   -0.0744 C   0  0  0  0  0  0  0  0  0  0  0  0
   -0.4850    0.3083   -0.1529 C   0  0  0  0  0  0  0  0  0  0  0  0
   -1.0447   -1.0522   -0.4302 N   0  0  0  0  0  0  0  0  0  0  0  0
   -2.8518   -3.3031    0.3631 O   0  0  0  0  0  0  0  0  0  0  0  0
    5.8573    0.3467    0.6706 H   0  0  0  0  0  0  0  0  0  0  0  0
    5.8181   -0.1926   -1.0076 H   0  0  0  0  0  0  0  0  0  0  0  0
    5.6138   -1.3792    0.3047 H   0  0  0  0  0  0  0  0  0  0  0  0
   -0.8119    3.9962   -0.1644 H   0  0  0  0  0  0  0  0  0  0  0  0
   -2.4338    3.7203    0.4359 H   0  0  0  0  0  0  0  0  0  0  0  0
    0.1296    2.6494    1.3705 H   0  0  0  0  0  0  0  0  0  0  0  0
   -1.3956    2.7564    2.2170 H   0  0  0  0  0  0  0  0  0  0  0  0
   -2.8175    1.8801   -0.9658 H   0  0  0  0  0  0  0  0  0  0  0  0
   -1.9353    2.9939   -1.9835 H   0  0  0  0  0  0  0  0  0  0  0  0
    3.6607   -0.8209   -2.0905 H   0  0  0  0  0  0  0  0  0  0  0  0
    3.7604    0.4824    2.0101 H   0  0  0  0  0  0  0  0  0  0  0  0
    1.2277   -0.5524   -2.1146 H   0  0  0  0  0  0  0  0  0  0  0  0
    1.3537    0.7563    2.0042 H   0  0  0  0  0  0  0  0  0  0  0  0
   -0.7774    0.4025    2.0437 H   0  0  0  0  0  0  0  0  0  0  0  0
   -2.2226    0.7265    1.1301 H   0  0  0  0  0  0  0  0  0  0  0  0
    0.1538    1.8516   -1.6124 H   0  0  0  0  0  0  0  0  0  0  0  0
   -1.0105    0.7344   -2.2661 H   0  0  0  0  0  0  0  0  0  0  0  0
   -0.9543   -1.7830    1.5685 H   0  0  0  0  0  0  0  0  0  0  0  0
    0.3835   -2.3062    0.5283 H   0  0  0  0  0  0  0  0  0  0  0  0
   -2.4733   -1.6703   -1.7977 H   0  0  0  0  0  0  0  0  0  0  0  0
   -2.9358   -0.1922   -0.9872 H   0  0  0  0  0  0  0  0  0  0  0  0
   -1.1056   -4.1931    0.9506 H   0  0  0  0  0  0  0  0  0  0  0  0
   -1.1918   -3.7683   -0.7588 H   0  0  0  0  0  0  0  0  0  0  0  0
   -3.3828   -1.4700    1.1257 H   0  0  0  0  0  0  0  0  0  0  0  0
   -4.3490   -2.0445   -0.2307 H   0  0  0  0  0  0  0  0  0  0  0  0
  1 15  1  0
  2  3  1  0
  2  4  1  0
  3  9  1  0
  4 10  1  0
  5  7  2  0
  5 15  1  0
  6  8  1  0
  6 15  2  0
  7 16  1  0
  8 16  2  0
  9 17  1  0
 10 17  1  0
 11 13  1  0
 11 18  1  0
 12 14  1  0
 12 18  1  0
 13 19  1  0
 14 19  1  0
 16 17  1  0
 17 18  1  0
  1 20  1  0
  1 21  1  0
  1 22  1  0
  2 23  1  0
  2 24  1  0
  3 25  1  0
  3 26  1  0
  4 27  1  0
  4 28  1  0
  5 29  1  0
  6 30  1  0
  7 31  1  0
  8 32  1  0
  9 33  1  0
  9 34  1  0
 10 35  1  0
 10 36  1  0
 11 37  1  0
 11 38  1  0
 12 39  1  0
 12 40  1  0
 13 41  1  0
 13 42  1  0
 14 43  1  0
 14 44  1  0
M  END
