
     RDKit          3D

 45 46  0  0  0  0  0  0  0  0999 V2000
    5.4155   -1.3792   -0.4951 C   0  0  0  0  0  0  0  0  0  0  0  0
    4.6138   -1.9203    0.6785 C   0  0  0  0  0  0  0  0  0  0  0  0
    3.1464   -1.4961    0.6570 C   0  0  0  0  0  0  0  0  0  0  0  0
   -1.9314    4.3236   -1.9928 C   0  0  0  0  0  0  0  0  0  0  0  0
   -1.5708    3.2077   -2.7440 C   0  0  0  0  0  0  0  0  0  0  0  0
   -1.8564    4.2785   -0.6028 C   0  0  0  0  0  0  0  0  0  0  0  0
   -3.4169   -0.7600    1.2255 C   0  0  0  0  0  0  0  0  0  0  0  0
   -3.0465   -2.2052    1.5633 C   0  0  0  0  0  0  0  0  0  0  0  0
   -1.1392    2.0434   -2.1063 C   0  0  0  0  0  0  0  0  0  0  0  0
   -1.4237    3.1158    0.0377 C   0  0  0  0  0  0  0  0  0  0  0  0
   -2.9416   -0.3876   -0.1742 C   0  0  0  0  0  0  0  0  0  0  0  0
   -1.9397   -2.7518    0.6620 C   0  0  0  0  0  0  0  0  0  0  0  0
    2.9432    0.0054    0.8429 C   0  0  0  0  0  0  0  0  0  0  0  0
   -1.0648    1.9793   -0.7059 C   0  0  0  0  0  0  0  0  0  0  0  0
   -1.4085   -0.5729   -0.3370 C   0  0  0  0  0  0  0  0  0  0  0  0
   -0.6016    0.7167    0.0164 C   0  0  0  0  0  0  0  0  0  0  0  0
    0.8849    0.4708   -0.2448 C   0  0  0  0  0  0  0  0  0  0  0  0
   -0.9098   -1.7415    0.4392 N   0  0  0  0  0  0  0  0  0  0  0  0
    1.4160    0.4173   -1.3473 O   0  0  0  0  0  0  0  0  0  0  0  0
    1.5400    0.2972    0.9447 O   0  0  0  0  0  0  0  0  0  0  0  0
    5.4989   -0.2892   -0.4557 H   0  0  0  0  0  0  0  0  0  0  0  0
    6.4302   -1.7897   -0.4776 H   0  0  0  0  0  0  0  0  0  0  0  0
    4.9540   -1.6573   -1.4479 H   0  0  0  0  0  0  0  0  0  0  0  0
    5.0811   -1.6026    1.6178 H   0  0  0  0  0  0  0  0  0  0  0  0
    4.6597   -3.0156    0.6564 H   0  0  0  0  0  0  0  0  0  0  0  0
    2.6102   -2.0251    1.4552 H   0  0  0  0  0  0  0  0  0  0  0  0
    2.6761   -1.8248   -0.2777 H   0  0  0  0  0  0  0  0  0  0  0  0
   -2.2646    5.2299   -2.4913 H   0  0  0  0  0  0  0  0  0  0  0  0
   -1.6178    3.2443   -3.8294 H   0  0  0  0  0  0  0  0  0  0  0  0
   -2.1327    5.1510   -0.0164 H   0  0  0  0  0  0  0  0  0  0  0  0
   -4.5009   -0.6238    1.3105 H   0  0  0  0  0  0  0  0  0  0  0  0
   -2.9586   -0.0837    1.9576 H   0  0  0  0  0  0  0  0  0  0  0  0
   -3.9305   -2.8466    1.4651 H   0  0  0  0  0  0  0  0  0  0  0  0
   -2.7399   -2.2567    2.6153 H   0  0  0  0  0  0  0  0  0  0  0  0
   -0.8457    1.1910   -2.7170 H   0  0  0  0  0  0  0  0  0  0  0  0
   -1.3721    3.1064    1.1244 H   0  0  0  0  0  0  0  0  0  0  0  0
   -3.2636    0.6312   -0.4076 H   0  0  0  0  0  0  0  0  0  0  0  0
   -3.4559   -1.0330   -0.8993 H   0  0  0  0  0  0  0  0  0  0  0  0
   -2.3470   -3.0962   -0.2964 H   0  0  0  0  0  0  0  0  0  0  0  0
   -1.4885   -3.6313    1.1347 H   0  0  0  0  0  0  0  0  0  0  0  0
    3.4038    0.5936    0.0417 H   0  0  0  0  0  0  0  0  0  0  0  0
    3.4013    0.3314    1.7830 H   0  0  0  0  0  0  0  0  0  0  0  0
   -1.2275   -0.8058   -1.3949 H   0  0  0  0  0  0  0  0  0  0  0  0
   -0.7217    0.8965    1.0948 H   0  0  0  0  0  0  0  0  0  0  0  0
   -0.5571   -1.4351    1.3476 H   0  0  0  0  0  0  0  0  0  0  0  0
  1  2  1  0
  2  3  1  0
  3 13  1  0
  4  5  2  0
  4  6  1  0
  5  9  1  0
  6 10  2  0
  7  8  1  0
  7 11  1  0
  8 12  1  0
  9 14  2  0
 10 14  1  0
 11 15  1  0
 12 18  1  0
 13 20  1  0
 14 16  1  0
 15 16  1  0
 15 18  1  0
 16 17  1  0
 17 19  2  0
 17 20  1  0
  1 21  1  0
  1 22  1  0
  1 23  1  0
  2 24  1  0
  2 25  1  0
  3 26  1  0
  3 27  1  0
  4 28  1  0
  5 29  1  0
  6 30  1  0
  7 31  1  0
  7 32  1  0
  8 33  1  0
  8 34  1  0
  9 35  1  0
 10 36  1  0
 11 37  1  0
 11 38  1  0
 12 39  1  0
 12 40  1  0
 13 41  1  0
 13 42  1  0
 15 43  1  0
 16 44  1  0
 18 45  1  0
M  END
