
     RDKit          3D

 45 46  0  0  0  0  0  0  0  0999 V2000
   -2.3913   -3.6575   -0.9020 C   0  0  0  0  0  0  0  0  0  0  0  0
   -0.4586   -0.6456    2.2897 C   0  0  0  0  0  0  0  0  0  0  0  0
    4.0615   -0.9347    1.0012 C   0  0  0  0  0  0  0  0  0  0  0  0
   -2.3662   -2.4814   -1.8600 C   0  0  0  0  0  0  0  0  0  0  0  0
   -1.8143    4.3339    0.7154 C   0  0  0  0  0  0  0  0  0  0  0  0
   -2.3489    3.6107   -0.3424 C   0  0  0  0  0  0  0  0  0  0  0  0
   -0.8273    3.7591    1.5072 C   0  0  0  0  0  0  0  0  0  0  0  0
    1.5107   -0.5968   -1.7818 C   0  0  0  0  0  0  0  0  0  0  0  0
   -1.8991    2.3125   -0.6000 C   0  0  0  0  0  0  0  0  0  0  0  0
   -0.3780    2.4583    1.2481 C   0  0  0  0  0  0  0  0  0  0  0  0
    0.4862    0.4861   -1.4292 C   0  0  0  0  0  0  0  0  0  0  0  0
    2.8159   -0.4923   -0.9934 C   0  0  0  0  0  0  0  0  0  0  0  0
    1.7890   -0.1670    1.2120 C   0  0  0  0  0  0  0  0  0  0  0  0
    0.3158   -0.5628    0.9571 C   0  0  0  0  0  0  0  0  0  0  0  0
   -0.9143    1.6913    0.2015 C   0  0  0  0  0  0  0  0  0  0  0  0
   -1.6461   -0.6303   -0.5523 C   0  0  0  0  0  0  0  0  0  0  0  0
   -0.4150    0.2585   -0.1694 C   0  0  0  0  0  0  0  0  0  0  0  0
    2.7244   -0.9542    0.3950 N   0  0  0  0  0  0  0  0  0  0  0  0
   -2.7584   -0.5454   -0.0427 O   0  0  0  0  0  0  0  0  0  0  0  0
   -1.3241   -1.5673   -1.4893 O   0  0  0  0  0  0  0  0  0  0  0  0
   -3.1419   -4.3915   -1.2083 H   0  0  0  0  0  0  0  0  0  0  0  0
   -1.4119   -4.1461   -0.8682 H   0  0  0  0  0  0  0  0  0  0  0  0
   -2.6182   -3.3299    0.1174 H   0  0  0  0  0  0  0  0  0  0  0  0
   -1.4980   -0.9495    2.1416 H   0  0  0  0  0  0  0  0  0  0  0  0
   -0.0009   -1.4018    2.9388 H   0  0  0  0  0  0  0  0  0  0  0  0
   -0.4544    0.2925    2.8476 H   0  0  0  0  0  0  0  0  0  0  0  0
    4.7579   -1.5547    0.4253 H   0  0  0  0  0  0  0  0  0  0  0  0
    4.4703    0.0804    1.0633 H   0  0  0  0  0  0  0  0  0  0  0  0
    4.0346   -1.3603    2.0106 H   0  0  0  0  0  0  0  0  0  0  0  0
   -3.3394   -1.9798   -1.9090 H   0  0  0  0  0  0  0  0  0  0  0  0
   -2.1360   -2.8349   -2.8704 H   0  0  0  0  0  0  0  0  0  0  0  0
   -2.1628    5.3421    0.9203 H   0  0  0  0  0  0  0  0  0  0  0  0
   -3.1182    4.0518   -0.9707 H   0  0  0  0  0  0  0  0  0  0  0  0
   -0.3997    4.3236    2.3322 H   0  0  0  0  0  0  0  0  0  0  0  0
    1.7664   -0.4682   -2.8422 H   0  0  0  0  0  0  0  0  0  0  0  0
    1.0967   -1.6063   -1.6979 H   0  0  0  0  0  0  0  0  0  0  0  0
   -2.3412    1.7867   -1.4448 H   0  0  0  0  0  0  0  0  0  0  0  0
    0.4028    2.0795    1.8965 H   0  0  0  0  0  0  0  0  0  0  0  0
   -0.1633    0.6199   -2.3066 H   0  0  0  0  0  0  0  0  0  0  0  0
    1.0329    1.4356   -1.3363 H   0  0  0  0  0  0  0  0  0  0  0  0
    3.2016    0.5347   -1.0426 H   0  0  0  0  0  0  0  0  0  0  0  0
    3.5465   -1.1226   -1.5177 H   0  0  0  0  0  0  0  0  0  0  0  0
    2.0066   -0.3673    2.2695 H   0  0  0  0  0  0  0  0  0  0  0  0
    1.9709    0.9025    1.0666 H   0  0  0  0  0  0  0  0  0  0  0  0
    0.3367   -1.6117    0.6201 H   0  0  0  0  0  0  0  0  0  0  0  0
  1  4  1  0
  2 14  1  0
  3 18  1  0
  4 20  1  0
  5  6  2  0
  5  7  1  0
  6  9  1  0
  7 10  2  0
  8 11  1  0
  8 12  1  0
  9 15  2  0
 10 15  1  0
 11 17  1  0
 12 18  1  0
 13 14  1  0
 13 18  1  0
 14 17  1  0
 15 17  1  0
 16 17  1  0
 16 19  2  0
 16 20  1  0
  1 21  1  0
  1 22  1  0
  1 23  1  0
  2 24  1  0
  2 25  1  0
  2 26  1  0
  3 27  1  0
  3 28  1  0
  3 29  1  0
  4 30  1  0
  4 31  1  0
  5 32  1  0
  6 33  1  0
  7 34  1  0
  8 35  1  0
  8 36  1  0
  9 37  1  0
 10 38  1  0
 11 39  1  0
 11 40  1  0
 12 41  1  0
 12 42  1  0
 13 43  1  0
 13 44  1  0
 14 45  1  0
M  END
