
     RDKit          3D

 46 47  0  0  0  0  0  0  0  0999 V2000
   -6.0229   -0.7773   -0.1165 C   0  0  0  0  0  0  0  0  0  0  0  0
   -5.2682    0.0701   -1.1349 C   0  0  0  0  0  0  0  0  0  0  0  0
   -5.1169   -1.1723    1.0448 C   0  0  0  0  0  0  0  0  0  0  0  0
    2.6544    1.0361    0.0331 C   0  0  0  0  0  0  0  0  0  0  0  0
   -1.3227    0.1457    1.1898 C   0  0  0  0  0  0  0  0  0  0  0  0
    3.3198    0.2654   -1.1102 C   0  0  0  0  0  0  0  0  0  0  0  0
    5.1670   -1.1577   -0.1370 C   0  0  0  0  0  0  0  0  0  0  0  0
    5.7582    0.9250   -1.2140 C   0  0  0  0  0  0  0  0  0  0  0  0
    6.5141   -1.3945    0.1451 C   0  0  0  0  0  0  0  0  0  0  0  0
    7.1054    0.6882   -0.9319 C   0  0  0  0  0  0  0  0  0  0  0  0
   -4.5558    1.2442   -0.4587 C   0  0  0  0  0  0  0  0  0  0  0  0
   -4.3994    0.0469    1.6310 C   0  0  0  0  0  0  0  0  0  0  0  0
   -2.4372    0.1970    0.1355 C   0  0  0  0  0  0  0  0  0  0  0  0
    1.1913    1.3541   -0.2689 C   0  0  0  0  0  0  0  0  0  0  0  0
   -0.0456   -0.4908    0.6386 C   0  0  0  0  0  0  0  0  0  0  0  0
    4.7786    0.0015   -0.8232 C   0  0  0  0  0  0  0  0  0  0  0  0
    7.4773   -0.4707   -0.2542 C   0  0  0  0  0  0  0  0  0  0  0  0
    9.1372   -0.7616    0.0944 Cl  0  0  0  0  0  0  0  0  0  0  0  0
   -3.6605    0.8466    0.6415 N   0  0  0  0  0  0  0  0  0  0  0  0
    0.4360    0.1724   -0.5282 O   0  0  0  0  0  0  0  0  0  0  0  0
   -6.4292   -1.6731   -0.5987 H   0  0  0  0  0  0  0  0  0  0  0  0
   -6.8767   -0.2058    0.2685 H   0  0  0  0  0  0  0  0  0  0  0  0
   -5.9701    0.4502   -1.8860 H   0  0  0  0  0  0  0  0  0  0  0  0
   -4.5428   -0.5546   -1.6696 H   0  0  0  0  0  0  0  0  0  0  0  0
   -5.7156   -1.6551    1.8258 H   0  0  0  0  0  0  0  0  0  0  0  0
   -4.3861   -1.9161    0.7067 H   0  0  0  0  0  0  0  0  0  0  0  0
    3.1899    1.9759    0.2157 H   0  0  0  0  0  0  0  0  0  0  0  0
    2.7266    0.4469    0.9547 H   0  0  0  0  0  0  0  0  0  0  0  0
   -1.1138    1.1643    1.5360 H   0  0  0  0  0  0  0  0  0  0  0  0
   -1.6355   -0.4357    2.0631 H   0  0  0  0  0  0  0  0  0  0  0  0
    3.2304    0.8277   -2.0483 H   0  0  0  0  0  0  0  0  0  0  0  0
    2.8089   -0.6904   -1.2808 H   0  0  0  0  0  0  0  0  0  0  0  0
    4.4209   -1.8831    0.1806 H   0  0  0  0  0  0  0  0  0  0  0  0
    5.4771    1.8342   -1.7412 H   0  0  0  0  0  0  0  0  0  0  0  0
    6.8034   -2.2977    0.6750 H   0  0  0  0  0  0  0  0  0  0  0  0
    7.8561    1.4098   -1.2420 H   0  0  0  0  0  0  0  0  0  0  0  0
   -4.0049    1.8255   -1.2084 H   0  0  0  0  0  0  0  0  0  0  0  0
   -5.3099    1.9339   -0.0570 H   0  0  0  0  0  0  0  0  0  0  0  0
   -5.1472    0.6988    2.1025 H   0  0  0  0  0  0  0  0  0  0  0  0
   -3.7484   -0.2695    2.4522 H   0  0  0  0  0  0  0  0  0  0  0  0
   -2.0585    0.7814   -0.7127 H   0  0  0  0  0  0  0  0  0  0  0  0
   -2.6378   -0.8105   -0.2460 H   0  0  0  0  0  0  0  0  0  0  0  0
    0.7473    1.9369    0.5446 H   0  0  0  0  0  0  0  0  0  0  0  0
    1.1360    1.9723   -1.1717 H   0  0  0  0  0  0  0  0  0  0  0  0
   -0.2590   -1.5257    0.3488 H   0  0  0  0  0  0  0  0  0  0  0  0
    0.7286   -0.5310    1.4121 H   0  0  0  0  0  0  0  0  0  0  0  0
  1  2  1  0
  1  3  1  0
  2 11  1  0
  3 12  1  0
  4  6  1  0
  4 14  1  0
  5 13  1  0
  5 15  1  0
  6 16  1  0
  7  9  2  0
  7 16  1  0
  8 10  1  0
  8 16  2  0
  9 17  1  0
 10 17  2  0
 11 19  1  0
 12 19  1  0
 13 19  1  0
 14 20  1  0
 15 20  1  0
 17 18  1  0
  1 21  1  0
  1 22  1  0
  2 23  1  0
  2 24  1  0
  3 25  1  0
  3 26  1  0
  4 27  1  0
  4 28  1  0
  5 29  1  0
  5 30  1  0
  6 31  1  0
  6 32  1  0
  7 33  1  0
  8 34  1  0
  9 35  1  0
 10 36  1  0
 11 37  1  0
 11 38  1  0
 12 39  1  0
 12 40  1  0
 13 41  1  0
 13 42  1  0
 14 43  1  0
 14 44  1  0
 15 45  1  0
 15 46  1  0
M  END
