
     RDKit          3D

 45 47  0  0  0  0  0  0  0  0999 V2000
    0.3771    3.0702   -1.9500 C   0  0  0  0  0  0  0  0  0  0  0  0
   -3.4454   -0.2041    2.0288 C   0  0  0  0  0  0  0  0  0  0  0  0
   -0.7269    2.0531   -2.2408 C   0  0  0  0  0  0  0  0  0  0  0  0
    1.2965    2.6346   -0.8081 C   0  0  0  0  0  0  0  0  0  0  0  0
   -3.3518   -1.0778    0.7880 C   0  0  0  0  0  0  0  0  0  0  0  0
   -2.0797   -0.0545    2.7004 C   0  0  0  0  0  0  0  0  0  0  0  0
    1.7370   -3.0508   -0.8750 C   0  0  0  0  0  0  0  0  0  0  0  0
    0.8038   -2.0127   -0.8868 C   0  0  0  0  0  0  0  0  0  0  0  0
    2.9888   -2.8557   -0.2998 C   0  0  0  0  0  0  0  0  0  0  0  0
   -0.2540    0.6362   -1.9293 C   0  0  0  0  0  0  0  0  0  0  0  0
    0.5390    1.7710    0.1985 C   0  0  0  0  0  0  0  0  0  0  0  0
   -2.3222   -0.5227   -0.2082 C   0  0  0  0  0  0  0  0  0  0  0  0
   -0.9043   -0.4050    1.7793 C   0  0  0  0  0  0  0  0  0  0  0  0
    2.3800   -0.5866    0.2263 C   0  0  0  0  0  0  0  0  0  0  0  0
    1.0997   -0.7488   -0.3401 C   0  0  0  0  0  0  0  0  0  0  0  0
    3.3039   -1.6394    0.3007 C   0  0  0  0  0  0  0  0  0  0  0  0
    0.0478    0.3955   -0.4015 C   0  0  0  0  0  0  0  0  0  0  0  0
    4.6032   -1.4025    0.7699 N   0  0  0  0  0  0  0  0  0  0  0  0
   -1.1559    0.0886    0.4264 N   0  0  0  0  0  0  0  0  0  0  0  0
   -0.0858    4.0355   -1.7121 H   0  0  0  0  0  0  0  0  0  0  0  0
    0.9835    3.2336   -2.8490 H   0  0  0  0  0  0  0  0  0  0  0  0
   -3.8192    0.7874    1.7437 H   0  0  0  0  0  0  0  0  0  0  0  0
   -4.1700   -0.6190    2.7383 H   0  0  0  0  0  0  0  0  0  0  0  0
   -1.6184    2.2887   -1.6476 H   0  0  0  0  0  0  0  0  0  0  0  0
   -1.0233    2.1308   -3.2931 H   0  0  0  0  0  0  0  0  0  0  0  0
    1.7043    3.5230   -0.3126 H   0  0  0  0  0  0  0  0  0  0  0  0
    2.1531    2.0814   -1.2104 H   0  0  0  0  0  0  0  0  0  0  0  0
   -4.3320   -1.1510    0.3033 H   0  0  0  0  0  0  0  0  0  0  0  0
   -3.0672   -2.0958    1.0835 H   0  0  0  0  0  0  0  0  0  0  0  0
   -1.9769    0.9762    3.0623 H   0  0  0  0  0  0  0  0  0  0  0  0
   -2.0338   -0.6993    3.5864 H   0  0  0  0  0  0  0  0  0  0  0  0
    1.4910   -4.0068   -1.3290 H   0  0  0  0  0  0  0  0  0  0  0  0
   -0.1565   -2.2010   -1.3561 H   0  0  0  0  0  0  0  0  0  0  0  0
    3.7167   -3.6613   -0.3263 H   0  0  0  0  0  0  0  0  0  0  0  0
   -0.9771   -0.0839   -2.3261 H   0  0  0  0  0  0  0  0  0  0  0  0
    0.6574    0.4594   -2.5205 H   0  0  0  0  0  0  0  0  0  0  0  0
   -0.3289    2.3660    0.5240 H   0  0  0  0  0  0  0  0  0  0  0  0
    1.1357    1.6423    1.1074 H   0  0  0  0  0  0  0  0  0  0  0  0
   -2.0514   -1.3489   -0.8703 H   0  0  0  0  0  0  0  0  0  0  0  0
   -2.8220    0.2364   -0.8212 H   0  0  0  0  0  0  0  0  0  0  0  0
   -0.0039    0.0326    2.2242 H   0  0  0  0  0  0  0  0  0  0  0  0
   -0.7483   -1.4914    1.7697 H   0  0  0  0  0  0  0  0  0  0  0  0
    2.6933    0.3735    0.6218 H   0  0  0  0  0  0  0  0  0  0  0  0
    5.0835   -2.2422    1.0775 H   0  0  0  0  0  0  0  0  0  0  0  0
    4.6595   -0.6547    1.4538 H   0  0  0  0  0  0  0  0  0  0  0  0
  1  3  1  0
  1  4  1  0
  2  5  1  0
  2  6  1  0
  3 10  1  0
  4 11  1  0
  5 12  1  0
  6 13  1  0
  7  8  2  0
  7  9  1  0
  8 15  1  0
  9 16  2  0
 10 17  1  0
 11 17  1  0
 12 19  1  0
 13 19  1  0
 14 15  2  0
 14 16  1  0
 15 17  1  0
 16 18  1  0
 17 19  1  0
  1 20  1  0
  1 21  1  0
  2 22  1  0
  2 23  1  0
  3 24  1  0
  3 25  1  0
  4 26  1  0
  4 27  1  0
  5 28  1  0
  5 29  1  0
  6 30  1  0
  6 31  1  0
  7 32  1  0
  8 33  1  0
  9 34  1  0
 10 35  1  0
 10 36  1  0
 11 37  1  0
 11 38  1  0
 12 39  1  0
 12 40  1  0
 13 41  1  0
 13 42  1  0
 14 43  1  0
 18 44  1  0
 18 45  1  0
M  END
