
     RDKit          3D

 40 41  0  0  0  0  0  0  0  0999 V2000
    4.6871   -1.2007    1.7214 C   0  0  0  0  0  0  0  0  0  0  0  0
    4.6025   -0.3775   -0.5256 C   0  0  0  0  0  0  0  0  0  0  0  0
   -3.1473    3.9257   -0.2366 C   0  0  0  0  0  0  0  0  0  0  0  0
   -3.0536   -3.2369    0.0044 C   0  0  0  0  0  0  0  0  0  0  0  0
   -3.1449    3.2010   -1.4262 C   0  0  0  0  0  0  0  0  0  0  0  0
   -2.3643    3.5038    0.8353 C   0  0  0  0  0  0  0  0  0  0  0  0
   -2.7210   -2.8360   -1.2879 C   0  0  0  0  0  0  0  0  0  0  0  0
   -2.6330   -2.4821    1.0972 C   0  0  0  0  0  0  0  0  0  0  0  0
   -2.3565    2.0545   -1.5453 C   0  0  0  0  0  0  0  0  0  0  0  0
   -1.5759    2.3572    0.7177 C   0  0  0  0  0  0  0  0  0  0  0  0
   -1.9656   -1.6790   -1.4893 C   0  0  0  0  0  0  0  0  0  0  0  0
   -1.8779   -1.3254    0.8980 C   0  0  0  0  0  0  0  0  0  0  0  0
    2.6220   -0.2918    0.8865 C   0  0  0  0  0  0  0  0  0  0  0  0
    1.5382   -0.3078   -0.2019 C   0  0  0  0  0  0  0  0  0  0  0  0
   -1.5548    1.6180   -0.4762 C   0  0  0  0  0  0  0  0  0  0  0  0
   -1.5309   -0.9099   -0.3978 C   0  0  0  0  0  0  0  0  0  0  0  0
   -0.7155    0.3540   -0.6258 C   0  0  0  0  0  0  0  0  0  0  0  0
    3.8422   -1.0431    0.5342 N   0  0  0  0  0  0  0  0  0  0  0  0
    0.3932    0.3976    0.2883 O   0  0  0  0  0  0  0  0  0  0  0  0
    5.0090   -0.2363    2.1312 H   0  0  0  0  0  0  0  0  0  0  0  0
    5.5796   -1.7905    1.4838 H   0  0  0  0  0  0  0  0  0  0  0  0
    4.1527   -1.7489    2.5054 H   0  0  0  0  0  0  0  0  0  0  0  0
    4.0334   -0.3431   -1.4596 H   0  0  0  0  0  0  0  0  0  0  0  0
    5.5177   -0.9373   -0.7508 H   0  0  0  0  0  0  0  0  0  0  0  0
    4.8860    0.6452   -0.2521 H   0  0  0  0  0  0  0  0  0  0  0  0
   -3.7621    4.8167   -0.1431 H   0  0  0  0  0  0  0  0  0  0  0  0
   -3.6421   -4.1371    0.1605 H   0  0  0  0  0  0  0  0  0  0  0  0
   -3.7605    3.5258   -2.2608 H   0  0  0  0  0  0  0  0  0  0  0  0
   -2.3674    4.0650    1.7659 H   0  0  0  0  0  0  0  0  0  0  0  0
   -3.0514   -3.4245   -2.1398 H   0  0  0  0  0  0  0  0  0  0  0  0
   -2.8928   -2.7920    2.1058 H   0  0  0  0  0  0  0  0  0  0  0  0
   -2.3753    1.4978   -2.4794 H   0  0  0  0  0  0  0  0  0  0  0  0
   -0.9738    2.0403    1.5668 H   0  0  0  0  0  0  0  0  0  0  0  0
   -1.7184   -1.3819   -2.5058 H   0  0  0  0  0  0  0  0  0  0  0  0
   -1.5552   -0.7439    1.7592 H   0  0  0  0  0  0  0  0  0  0  0  0
    2.8587    0.7467    1.1554 H   0  0  0  0  0  0  0  0  0  0  0  0
    2.1712   -0.7315    1.7869 H   0  0  0  0  0  0  0  0  0  0  0  0
    1.8915    0.1917   -1.1098 H   0  0  0  0  0  0  0  0  0  0  0  0
    1.2672   -1.3422   -0.4422 H   0  0  0  0  0  0  0  0  0  0  0  0
   -0.3118    0.3586   -1.6482 H   0  0  0  0  0  0  0  0  0  0  0  0
  1 18  1  0
  2 18  1  0
  3  5  2  0
  3  6  1  0
  4  7  2  0
  4  8  1  0
  5  9  1  0
  6 10  2  0
  7 11  1  0
  8 12  2  0
  9 15  2  0
 10 15  1  0
 11 16  2  0
 12 16  1  0
 13 14  1  0
 13 18  1  0
 14 19  1  0
 15 17  1  0
 16 17  1  0
 17 19  1  0
  1 20  1  0
  1 21  1  0
  1 22  1  0
  2 23  1  0
  2 24  1  0
  2 25  1  0
  3 26  1  0
  4 27  1  0
  5 28  1  0
  6 29  1  0
  7 30  1  0
  8 31  1  0
  9 32  1  0
 10 33  1  0
 11 34  1  0
 12 35  1  0
 13 36  1  0
 13 37  1  0
 14 38  1  0
 14 39  1  0
 17 40  1  0
M  END
