
     RDKit          3D

 38 41  0  0  0  0  0  0  0  0999 V2000
   -3.7272   -1.1347   -1.8653 C   0  0  0  0  0  0  0  0  0  0  0  0
    4.5571    0.5889    0.0271 C   0  0  0  0  0  0  0  0  0  0  0  0
    4.6182    0.9504   -1.3165 C   0  0  0  0  0  0  0  0  0  0  0  0
    3.3705    0.0831    0.5622 C   0  0  0  0  0  0  0  0  0  0  0  0
    3.4930    0.8071   -2.1283 C   0  0  0  0  0  0  0  0  0  0  0  0
   -2.4008    2.0814    0.8025 C   0  0  0  0  0  0  0  0  0  0  0  0
    1.0134   -1.8867    0.7450 C   0  0  0  0  0  0  0  0  0  0  0  0
   -2.6399    0.7660    0.4014 C   0  0  0  0  0  0  0  0  0  0  0  0
   -0.1494   -2.6501    1.2940 C   0  0  0  0  0  0  0  0  0  0  0  0
   -0.0356    1.5739    0.9739 C   0  0  0  0  0  0  0  0  0  0  0  0
   -2.9121   -1.9567   -0.9389 C   0  0  0  0  0  0  0  0  0  0  0  0
   -1.0967    2.4813    1.0893 C   0  0  0  0  0  0  0  0  0  0  0  0
    0.9736   -0.5923    0.3715 C   0  0  0  0  0  0  0  0  0  0  0  0
    2.2269   -0.0683   -0.2423 C   0  0  0  0  0  0  0  0  0  0  0  0
   -0.2548    0.2400    0.5640 C   0  0  0  0  0  0  0  0  0  0  0  0
    2.3017    0.3019   -1.5975 C   0  0  0  0  0  0  0  0  0  0  0  0
   -1.5833   -0.1589    0.2741 C   0  0  0  0  0  0  0  0  0  0  0  0
   -1.3143   -2.6471    0.3804 C   0  0  0  0  0  0  0  0  0  0  0  0
    0.9510    0.1459   -2.6687 Cl  0  0  0  0  0  0  0  0  0  0  0  0
   -2.9652   -3.2720   -0.8764 N   0  0  0  0  0  0  0  0  0  0  0  0
   -1.9639   -3.7040   -0.0559 N   0  0  0  0  0  0  0  0  0  0  0  0
   -1.9087   -1.4952   -0.0974 N   0  0  0  0  0  0  0  0  0  0  0  0
   -0.8347    3.8611    1.5183 N   0  0  0  0  0  4  0  0  0  0  0  0
   -1.7921    4.6472    1.5418 O   0  0  0  0  0  1  0  0  0  0  0  0
    0.3262    4.1561    1.8344 O   0  0  0  0  0  0  0  0  0  0  0  0
   -4.0178   -1.7321   -2.7362 H   0  0  0  0  0  0  0  0  0  0  0  0
   -4.6461   -0.7968   -1.3781 H   0  0  0  0  0  0  0  0  0  0  0  0
   -3.1740   -0.2682   -2.2389 H   0  0  0  0  0  0  0  0  0  0  0  0
    5.4338    0.7024    0.6609 H   0  0  0  0  0  0  0  0  0  0  0  0
    5.5425    1.3441   -1.7331 H   0  0  0  0  0  0  0  0  0  0  0  0
    3.3412   -0.1868    1.6162 H   0  0  0  0  0  0  0  0  0  0  0  0
    3.5510    1.0901   -3.1766 H   0  0  0  0  0  0  0  0  0  0  0  0
   -3.2397    2.7685    0.9004 H   0  0  0  0  0  0  0  0  0  0  0  0
    1.9179   -2.4754    0.5948 H   0  0  0  0  0  0  0  0  0  0  0  0
   -3.6761    0.4739    0.2466 H   0  0  0  0  0  0  0  0  0  0  0  0
    0.1660   -3.6878    1.4602 H   0  0  0  0  0  0  0  0  0  0  0  0
   -0.4286   -2.2594    2.2798 H   0  0  0  0  0  0  0  0  0  0  0  0
    0.9770    1.9091    1.1987 H   0  0  0  0  0  0  0  0  0  0  0  0
  1 11  1  0
  2  3  2  0
  2  4  1  0
  3  5  1  0
  4 14  2  0
  5 16  2  0
  6  8  2  0
  6 12  1  0
  7  9  1  0
  7 13  2  0
  8 17  1  0
  9 18  1  0
 10 12  2  0
 10 15  1  0
 11 20  2  0
 11 22  1  0
 12 23  1  0
 13 14  1  0
 13 15  1  0
 14 16  1  0
 15 17  2  0
 16 19  1  0
 17 22  1  0
 18 21  2  0
 18 22  1  0
 20 21  1  0
 23 24  1  0
 23 25  2  0
  1 26  1  0
  1 27  1  0
  1 28  1  0
  2 29  1  0
  3 30  1  0
  4 31  1  0
  5 32  1  0
  6 33  1  0
  7 34  1  0
  8 35  1  0
  9 36  1  0
  9 37  1  0
 10 38  1  0
M  CHG  2  23   1  24  -1
M  END
