
     RDKit          3D

 36 39  0  0  0  0  0  0  0  0999 V2000
   -3.8330   -1.1192    1.5078 C   0  0  0  0  0  0  0  0  0  0  0  0
    4.7447   -0.1833    1.0449 C   0  0  0  0  0  0  0  0  0  0  0  0
    3.6205   -0.4601    1.8212 C   0  0  0  0  0  0  0  0  0  0  0  0
    4.6022    0.1008   -0.3124 C   0  0  0  0  0  0  0  0  0  0  0  0
   -0.6792    3.0831    0.4858 C   0  0  0  0  0  0  0  0  0  0  0  0
   -2.0158    2.7722    0.6814 C   0  0  0  0  0  0  0  0  0  0  0  0
    2.3507   -0.4545    1.2403 C   0  0  0  0  0  0  0  0  0  0  0  0
    3.3335    0.1065   -0.8956 C   0  0  0  0  0  0  0  0  0  0  0  0
    0.1952    2.1088    0.0024 C   0  0  0  0  0  0  0  0  0  0  0  0
   -2.4772    1.4885    0.3937 C   0  0  0  0  0  0  0  0  0  0  0  0
    0.6198   -1.0701   -1.6906 C   0  0  0  0  0  0  0  0  0  0  0  0
   -0.6855   -1.2857   -2.3854 C   0  0  0  0  0  0  0  0  0  0  0  0
   -3.1941   -1.4670    0.2160 C   0  0  0  0  0  0  0  0  0  0  0  0
    2.1964   -0.1754   -0.1243 C   0  0  0  0  0  0  0  0  0  0  0  0
    0.8341   -0.1581   -0.7215 C   0  0  0  0  0  0  0  0  0  0  0  0
   -0.2366    0.7978   -0.2965 C   0  0  0  0  0  0  0  0  0  0  0  0
   -1.6029    0.4932   -0.0877 C   0  0  0  0  0  0  0  0  0  0  0  0
   -1.7879   -1.6006   -1.4494 C   0  0  0  0  0  0  0  0  0  0  0  0
   -3.4695   -2.5565   -0.4728 N   0  0  0  0  0  0  0  0  0  0  0  0
   -2.5882   -2.6426   -1.5109 N   0  0  0  0  0  0  0  0  0  0  0  0
   -2.1525   -0.7826   -0.3979 N   0  0  0  0  0  0  0  0  0  0  0  0
   -4.6893   -0.4571    1.3518 H   0  0  0  0  0  0  0  0  0  0  0  0
   -4.2051   -2.0266    1.9956 H   0  0  0  0  0  0  0  0  0  0  0  0
   -3.1293   -0.6476    2.1997 H   0  0  0  0  0  0  0  0  0  0  0  0
    5.7327   -0.1890    1.4982 H   0  0  0  0  0  0  0  0  0  0  0  0
    3.7315   -0.6820    2.8794 H   0  0  0  0  0  0  0  0  0  0  0  0
    5.4787    0.3187   -0.9170 H   0  0  0  0  0  0  0  0  0  0  0  0
   -0.3112    4.0826    0.7039 H   0  0  0  0  0  0  0  0  0  0  0  0
   -2.7048    3.5324    1.0416 H   0  0  0  0  0  0  0  0  0  0  0  0
    1.4828   -0.6743    1.8578 H   0  0  0  0  0  0  0  0  0  0  0  0
    3.2365    0.3382   -1.9537 H   0  0  0  0  0  0  0  0  0  0  0  0
    1.2386    2.3905   -0.1372 H   0  0  0  0  0  0  0  0  0  0  0  0
   -3.5436    1.3099    0.5010 H   0  0  0  0  0  0  0  0  0  0  0  0
    1.4135   -1.7564   -1.9831 H   0  0  0  0  0  0  0  0  0  0  0  0
   -0.9365   -0.4128   -3.0000 H   0  0  0  0  0  0  0  0  0  0  0  0
   -0.5692   -2.1220   -3.0862 H   0  0  0  0  0  0  0  0  0  0  0  0
  1 13  1  0
  2  3  2  0
  2  4  1  0
  3  7  1  0
  4  8  2  0
  5  6  2  0
  5  9  1  0
  6 10  1  0
  7 14  2  0
  8 14  1  0
  9 16  2  0
 10 17  2  0
 11 12  1  0
 11 15  2  0
 12 18  1  0
 13 19  2  0
 13 21  1  0
 14 15  1  0
 15 16  1  0
 16 17  1  0
 17 21  1  0
 18 20  2  0
 18 21  1  0
 19 20  1  0
  1 22  1  0
  1 23  1  0
  1 24  1  0
  2 25  1  0
  3 26  1  0
  4 27  1  0
  5 28  1  0
  6 29  1  0
  7 30  1  0
  8 31  1  0
  9 32  1  0
 10 33  1  0
 11 34  1  0
 12 35  1  0
 12 36  1  0
M  END
