
     RDKit          3D

 42 45  0  0  0  0  0  0  0  0999 V2000
   -3.7902   -2.2359    0.4089 C   0  0  0  0  0  0  0  0  0  0  0  0
    0.2232    5.2295    0.0825 C   0  0  0  0  0  0  0  0  0  0  0  0
   -2.0166    1.7690   -0.9048 C   0  0  0  0  0  0  0  0  0  0  0  0
   -1.2881    2.9414   -0.6358 C   0  0  0  0  0  0  0  0  0  0  0  0
    2.1852   -2.1777   -1.0941 C   0  0  0  0  0  0  0  0  0  0  0  0
    0.9461   -1.7217   -0.8531 C   0  0  0  0  0  0  0  0  0  0  0  0
   -0.1760   -1.5016    1.3942 C   0  0  0  0  0  0  0  0  0  0  0  0
   -1.4558   -2.2460    0.9628 C   0  0  0  0  0  0  0  0  0  0  0  0
    3.1705   -0.2510    0.0770 C   0  0  0  0  0  0  0  0  0  0  0  0
   -2.3347   -0.7399   -0.7803 C   0  0  0  0  0  0  0  0  0  0  0  0
   -1.4848    0.4973   -0.6309 C   0  0  0  0  0  0  0  0  0  0  0  0
    3.3765   -1.6965   -0.3390 C   0  0  0  0  0  0  0  0  0  0  0  0
   -0.0247    2.8698   -0.0500 C   0  0  0  0  0  0  0  0  0  0  0  0
    1.8685   -0.0447    0.8604 C   0  0  0  0  0  0  0  0  0  0  0  0
   -0.1856    0.4375   -0.1364 C   0  0  0  0  0  0  0  0  0  0  0  0
    0.4903    1.6033    0.2014 C   0  0  0  0  0  0  0  0  0  0  0  0
    0.5997   -0.7653    0.2773 C   0  0  0  0  0  0  0  0  0  0  0  0
   -2.5821   -1.4090    0.5107 N   0  0  0  0  0  0  0  0  0  0  0  0
    4.4978   -1.7908   -1.2070 O   0  0  0  0  0  0  0  0  0  0  0  0
    0.7527    3.9321    0.3140 O   0  0  0  0  0  0  0  0  0  0  0  0
    1.6611    1.3897    0.8835 O   0  0  0  0  0  0  0  0  0  0  0  0
   -3.6866   -3.0245   -0.3452 H   0  0  0  0  0  0  0  0  0  0  0  0
   -4.6602   -1.6212    0.1514 H   0  0  0  0  0  0  0  0  0  0  0  0
   -4.0225   -2.7050    1.3717 H   0  0  0  0  0  0  0  0  0  0  0  0
    0.9602    5.9591    0.4317 H   0  0  0  0  0  0  0  0  0  0  0  0
   -0.6979    5.3884    0.6531 H   0  0  0  0  0  0  0  0  0  0  0  0
    0.0618    5.4055   -0.9861 H   0  0  0  0  0  0  0  0  0  0  0  0
   -3.0260    1.8644   -1.3006 H   0  0  0  0  0  0  0  0  0  0  0  0
   -1.7589    3.8922   -0.8615 H   0  0  0  0  0  0  0  0  0  0  0  0
    2.3523   -2.9028   -1.8868 H   0  0  0  0  0  0  0  0  0  0  0  0
    0.1455   -2.1013   -1.4795 H   0  0  0  0  0  0  0  0  0  0  0  0
    0.4925   -2.2455    1.8506 H   0  0  0  0  0  0  0  0  0  0  0  0
   -0.4365   -0.8021    2.2017 H   0  0  0  0  0  0  0  0  0  0  0  0
   -1.7830   -2.7943    1.8574 H   0  0  0  0  0  0  0  0  0  0  0  0
   -1.2210   -3.0166    0.2179 H   0  0  0  0  0  0  0  0  0  0  0  0
    4.0222    0.0966    0.6767 H   0  0  0  0  0  0  0  0  0  0  0  0
    3.1895    0.4014   -0.8088 H   0  0  0  0  0  0  0  0  0  0  0  0
   -3.2954   -0.4189   -1.2062 H   0  0  0  0  0  0  0  0  0  0  0  0
   -1.9116   -1.4204   -1.5271 H   0  0  0  0  0  0  0  0  0  0  0  0
    3.5606   -2.3447    0.5243 H   0  0  0  0  0  0  0  0  0  0  0  0
    2.0404   -0.3606    1.8979 H   0  0  0  0  0  0  0  0  0  0  0  0
    5.2413   -1.3389   -0.7740 H   0  0  0  0  0  0  0  0  0  0  0  0
  1 18  1  0
  2 20  1  0
  3  4  2  0
  3 11  1  0
  4 13  1  0
  5  6  2  0
  5 12  1  0
  6 17  1  0
  7  8  1  0
  7 17  1  0
  8 18  1  0
  9 12  1  0
  9 14  1  0
 10 11  1  0
 10 18  1  0
 11 15  2  0
 12 19  1  0
 13 16  2  0
 13 20  1  0
 14 17  1  0
 14 21  1  0
 15 16  1  0
 15 17  1  0
 16 21  1  0
  1 22  1  0
  1 23  1  0
  1 24  1  0
  2 25  1  0
  2 26  1  0
  2 27  1  0
  3 28  1  0
  4 29  1  0
  5 30  1  0
  6 31  1  0
  7 32  1  0
  7 33  1  0
  8 34  1  0
  8 35  1  0
  9 36  1  0
  9 37  1  0
 10 38  1  0
 10 39  1  0
 12 40  1  0
 14 41  1  0
 19 42  1  0
M  END
