
     RDKit          3D

 42 46  0  0  0  0  0  0  0  0999 V2000
   -2.1919    1.7461    2.4701 C   0  0  0  0  0  0  0  0  0  0  0  0
   -3.0181   -0.6881    2.5675 C   0  0  0  0  0  0  0  0  0  0  0  0
   -4.4187    0.8301   -2.5681 C   0  0  0  0  0  0  0  0  0  0  0  0
   -4.7988    1.0484   -1.2514 C   0  0  0  0  0  0  0  0  0  0  0  0
   -3.1292    0.3925   -2.8447 C   0  0  0  0  0  0  0  0  0  0  0  0
   -3.8933    0.8270   -0.2049 C   0  0  0  0  0  0  0  0  0  0  0  0
    5.6520    1.2032    0.9841 C   0  0  0  0  0  0  0  0  0  0  0  0
    6.6045    0.0883    0.6607 C   0  0  0  0  0  0  0  0  0  0  0  0
   -0.3059   -0.5381   -3.2433 C   0  0  0  0  0  0  0  0  0  0  0  0
   -1.9606    0.2915    2.0525 C   0  0  0  0  0  0  0  0  0  0  0  0
    5.1933   -0.2293    1.0811 C   0  0  0  0  0  0  0  0  0  0  0  0
   -2.2285    0.1730   -1.7897 C   0  0  0  0  0  0  0  0  0  0  0  0
   -2.5863    0.3807   -0.4407 C   0  0  0  0  0  0  0  0  0  0  0  0
    1.1638   -0.8070   -1.7145 C   0  0  0  0  0  0  0  0  0  0  0  0
   -0.0035   -0.4647   -1.0601 C   0  0  0  0  0  0  0  0  0  0  0  0
    2.4965   -1.0564   -1.1600 C   0  0  0  0  0  0  0  0  0  0  0  0
    4.1911   -0.7721    0.0253 C   0  0  0  0  0  0  0  0  0  0  0  0
   -0.3252   -0.3380    0.3278 C   0  0  0  0  0  0  0  0  0  0  0  0
    0.9523   -0.8769   -3.0771 N   0  0  0  0  0  0  0  0  0  0  0  0
    3.0062   -0.2454   -0.1778 N   0  0  0  0  0  0  0  0  0  0  0  0
    3.3283   -2.0155   -1.5917 N   0  0  0  0  0  0  0  0  0  0  0  0
   -0.9194   -0.2558   -2.0515 N   0  0  0  0  0  0  0  0  0  0  0  0
   -1.6337    0.1257    0.6178 N   0  0  0  0  0  0  0  0  0  0  0  0
    0.4733   -0.6400    1.2111 O   0  0  0  0  0  0  0  0  0  0  0  0
    4.4564   -1.8382   -0.7877 O   0  0  0  0  0  0  0  0  0  0  0  0
   -3.0947    2.1877    2.0477 H   0  0  0  0  0  0  0  0  0  0  0  0
   -2.2757    1.8201    3.5601 H   0  0  0  0  0  0  0  0  0  0  0  0
   -1.3472    2.3692    2.1578 H   0  0  0  0  0  0  0  0  0  0  0  0
   -3.0589   -0.6592    3.6623 H   0  0  0  0  0  0  0  0  0  0  0  0
   -2.7705   -1.7119    2.2682 H   0  0  0  0  0  0  0  0  0  0  0  0
   -4.0255   -0.4770    2.2071 H   0  0  0  0  0  0  0  0  0  0  0  0
   -5.1253    1.0030   -3.3765 H   0  0  0  0  0  0  0  0  0  0  0  0
   -5.8066    1.3920   -1.0287 H   0  0  0  0  0  0  0  0  0  0  0  0
   -2.8590    0.2354   -3.8845 H   0  0  0  0  0  0  0  0  0  0  0  0
   -4.2697    1.0215    0.7900 H   0  0  0  0  0  0  0  0  0  0  0  0
    5.7953    1.7491    1.9099 H   0  0  0  0  0  0  0  0  0  0  0  0
    5.2753    1.8085    0.1671 H   0  0  0  0  0  0  0  0  0  0  0  0
    6.8830   -0.0552   -0.3783 H   0  0  0  0  0  0  0  0  0  0  0  0
    7.4000   -0.1210    1.3662 H   0  0  0  0  0  0  0  0  0  0  0  0
   -0.8014   -0.4829   -4.2025 H   0  0  0  0  0  0  0  0  0  0  0  0
   -1.0682    0.0124    2.6250 H   0  0  0  0  0  0  0  0  0  0  0  0
    5.0444   -0.6362    2.0744 H   0  0  0  0  0  0  0  0  0  0  0  0
  1 10  1  0
  2 10  1  0
  3  4  2  0
  3  5  1  0
  4  6  1  0
  5 12  2  0
  6 13  2  0
  7  8  1  0
  7 11  1  0
  8 11  1  0
  9 19  2  0
  9 22  1  0
 10 23  1  0
 11 17  1  0
 12 13  1  0
 12 22  1  0
 13 23  1  0
 14 15  2  0
 14 16  1  0
 14 19  1  0
 15 18  1  0
 15 22  1  0
 16 20  1  0
 16 21  2  0
 17 20  2  0
 17 25  1  0
 18 23  1  0
 18 24  2  0
 21 25  1  0
  1 26  1  0
  1 27  1  0
  1 28  1  0
  2 29  1  0
  2 30  1  0
  2 31  1  0
  3 32  1  0
  4 33  1  0
  5 34  1  0
  6 35  1  0
  7 36  1  0
  7 37  1  0
  8 38  1  0
  8 39  1  0
  9 40  1  0
 10 41  1  0
 11 42  1  0
M  END
