
     RDKit          3D

 44 47  0  0  0  0  0  0  0  0999 V2000
    5.4618   -0.5066   -1.4918 C   0  0  0  0  0  0  0  0  0  0  0  0
   -6.1784   -0.2695    0.7791 C   0  0  0  0  0  0  0  0  0  0  0  0
    4.9399    0.8914   -1.2184 C   0  0  0  0  0  0  0  0  0  0  0  0
   -0.0137    0.1840   -2.8180 C   0  0  0  0  0  0  0  0  0  0  0  0
    0.4281    1.0274   -1.6069 C   0  0  0  0  0  0  0  0  0  0  0  0
   -3.4010    1.3274    2.4674 C   0  0  0  0  0  0  0  0  0  0  0  0
   -2.0064    1.3186    2.5157 C   0  0  0  0  0  0  0  0  0  0  0  0
   -0.1902   -1.2493   -2.2797 C   0  0  0  0  0  0  0  0  0  0  0  0
   -3.3365   -0.2963    0.7121 C   0  0  0  0  0  0  0  0  0  0  0  0
    0.8457    0.8931    2.8986 C   0  0  0  0  0  0  0  0  0  0  0  0
   -4.0771    0.5178    1.5660 C   0  0  0  0  0  0  0  0  0  0  0  0
   -1.9180   -0.3199    0.7372 C   0  0  0  0  0  0  0  0  0  0  0  0
   -1.2508    0.5009    1.6477 C   0  0  0  0  0  0  0  0  0  0  0  0
    0.8451   -0.0392   -0.6145 C   0  0  0  0  0  0  0  0  0  0  0  0
    2.3332    0.6690    1.3800 C   0  0  0  0  0  0  0  0  0  0  0  0
    1.1084    0.3548    0.7770 C   0  0  0  0  0  0  0  0  0  0  0  0
   -1.3188   -1.3142   -0.1906 C   0  0  0  0  0  0  0  0  0  0  0  0
    3.6809    0.7163    0.7882 C   0  0  0  0  0  0  0  0  0  0  0  0
    2.1364    0.9732    2.7092 N   0  0  0  0  0  0  0  0  0  0  0  0
   -0.1144   -1.0901   -0.8317 N   0  0  0  0  0  0  0  0  0  0  0  0
    0.1566    0.5551    1.7546 N   0  0  0  0  0  0  0  0  0  0  0  0
   -1.9948   -2.3078   -0.4700 O   0  0  0  0  0  0  0  0  0  0  0  0
    4.7130    0.6937    1.4492 O   0  0  0  0  0  0  0  0  0  0  0  0
   -5.4384    0.6126    1.6157 O   0  0  0  0  0  0  0  0  0  0  0  0
    3.6591    0.8215   -0.5756 O   0  0  0  0  0  0  0  0  0  0  0  0
    5.6187   -1.0571   -0.5589 H   0  0  0  0  0  0  0  0  0  0  0  0
    6.4087   -0.4674   -2.0377 H   0  0  0  0  0  0  0  0  0  0  0  0
    4.7373   -1.0786   -2.0809 H   0  0  0  0  0  0  0  0  0  0  0  0
   -5.9631   -1.3161    1.0186 H   0  0  0  0  0  0  0  0  0  0  0  0
   -5.9904   -0.0577   -0.2786 H   0  0  0  0  0  0  0  0  0  0  0  0
   -7.2420   -0.0962    0.9693 H   0  0  0  0  0  0  0  0  0  0  0  0
    4.7917    1.4192   -2.1663 H   0  0  0  0  0  0  0  0  0  0  0  0
    5.6533    1.4813   -0.6318 H   0  0  0  0  0  0  0  0  0  0  0  0
    0.7351    0.2028   -3.6169 H   0  0  0  0  0  0  0  0  0  0  0  0
   -0.9512    0.5721   -3.2302 H   0  0  0  0  0  0  0  0  0  0  0  0
   -0.4175    1.6192   -1.2366 H   0  0  0  0  0  0  0  0  0  0  0  0
    1.2365    1.7205   -1.8586 H   0  0  0  0  0  0  0  0  0  0  0  0
   -3.9625    1.9743    3.1385 H   0  0  0  0  0  0  0  0  0  0  0  0
   -1.5369    1.9992    3.2235 H   0  0  0  0  0  0  0  0  0  0  0  0
    0.6461   -1.8836   -2.5955 H   0  0  0  0  0  0  0  0  0  0  0  0
   -1.1247   -1.6975   -2.6309 H   0  0  0  0  0  0  0  0  0  0  0  0
   -3.8484   -0.9453    0.0046 H   0  0  0  0  0  0  0  0  0  0  0  0
    0.3630    1.0497    3.8545 H   0  0  0  0  0  0  0  0  0  0  0  0
    1.7766   -0.4883   -0.9867 H   0  0  0  0  0  0  0  0  0  0  0  0
  1  3  1  0
  2 24  1  0
  3 25  1  0
  4  5  1  0
  4  8  1  0
  5 14  1  0
  6  7  1  0
  6 11  2  0
  7 13  2  0
  8 20  1  0
  9 11  1  0
  9 12  2  0
 10 19  2  0
 10 21  1  0
 11 24  1  0
 12 13  1  0
 12 17  1  0
 13 21  1  0
 14 16  1  0
 14 20  1  0
 15 16  2  0
 15 18  1  0
 15 19  1  0
 16 21  1  0
 17 20  1  0
 17 22  2  0
 18 23  2  0
 18 25  1  0
  1 26  1  0
  1 27  1  0
  1 28  1  0
  2 29  1  0
  2 30  1  0
  2 31  1  0
  3 32  1  0
  3 33  1  0
  4 34  1  0
  4 35  1  0
  5 36  1  0
  5 37  1  0
  6 38  1  0
  7 39  1  0
  8 40  1  0
  8 41  1  0
  9 42  1  0
 10 43  1  0
 14 44  1  0
M  END
