
     RDKit          3D

 44 46  0  0  0  0  0  0  0  0999 V2000
    2.8984    3.5506    1.8451 C   0  0  0  0  0  0  0  0  0  0  0  0
    4.6433   -2.9625   -1.2087 C   0  0  0  0  0  0  0  0  0  0  0  0
   -5.4355   -0.7985   -1.9622 C   0  0  0  0  0  0  0  0  0  0  0  0
   -4.0443   -0.8371   -1.8139 C   0  0  0  0  0  0  0  0  0  0  0  0
   -6.2665   -0.5288   -0.8693 C   0  0  0  0  0  0  0  0  0  0  0  0
    0.9440    0.5398   -0.3542 C   0  0  0  0  0  0  0  0  0  0  0  0
    0.0482    0.0692    0.8025 C   0  0  0  0  0  0  0  0  0  0  0  0
    3.1354   -0.7068   -0.4068 C   0  0  0  0  0  0  0  0  0  0  0  0
    4.4118    1.2973    1.0553 C   0  0  0  0  0  0  0  0  0  0  0  0
   -1.9120   -0.6957   -0.4406 C   0  0  0  0  0  0  0  0  0  0  0  0
   -5.2595    0.1002    2.4364 C   0  0  0  0  0  0  0  0  0  0  0  0
    2.4148    0.4347   -0.0023 C   0  0  0  0  0  0  0  0  0  0  0  0
   -3.4137   -0.5961   -0.5754 C   0  0  0  0  0  0  0  0  0  0  0  0
    5.1173    0.1610    0.6410 C   0  0  0  0  0  0  0  0  0  0  0  0
   -5.6752   -0.3013    0.3798 C   0  0  0  0  0  0  0  0  0  0  0  0
    3.0601    1.4401    0.7398 C   0  0  0  0  0  0  0  0  0  0  0  0
    4.4892   -0.8539   -0.0930 C   0  0  0  0  0  0  0  0  0  0  0  0
   -4.2913   -0.3435    0.4917 C   0  0  0  0  0  0  0  0  0  0  0  0
    6.9571    0.0470    1.1153 Br  0  0  0  0  0  0  0  0  0  0  0  0
   -1.3909    0.2389    0.5633 N   0  0  0  0  0  0  0  0  0  0  0  0
   -6.2599   -0.0271    1.5941 N   0  0  0  0  0  0  0  0  0  0  0  0
   -4.0570   -0.0843    1.8202 N   0  0  0  0  0  0  0  0  0  0  0  0
    2.2799    2.5053    1.1047 O   0  0  0  0  0  0  0  0  0  0  0  0
    5.2575   -1.9295   -0.4504 O   0  0  0  0  0  0  0  0  0  0  0  0
    3.7014    4.0212    1.2684 H   0  0  0  0  0  0  0  0  0  0  0  0
    3.2632    3.1868    2.8112 H   0  0  0  0  0  0  0  0  0  0  0  0
    2.1393    4.3137    2.0423 H   0  0  0  0  0  0  0  0  0  0  0  0
    3.8335   -3.4372   -0.6450 H   0  0  0  0  0  0  0  0  0  0  0  0
    5.4011   -3.7262   -1.4083 H   0  0  0  0  0  0  0  0  0  0  0  0
    4.2881   -2.5864   -2.1737 H   0  0  0  0  0  0  0  0  0  0  0  0
   -5.8803   -0.9848   -2.9369 H   0  0  0  0  0  0  0  0  0  0  0  0
   -3.4379   -1.0624   -2.6903 H   0  0  0  0  0  0  0  0  0  0  0  0
   -7.3450   -0.4994   -0.9737 H   0  0  0  0  0  0  0  0  0  0  0  0
    0.7519   -0.0557   -1.2549 H   0  0  0  0  0  0  0  0  0  0  0  0
    0.7043    1.5742   -0.6313 H   0  0  0  0  0  0  0  0  0  0  0  0
    0.2894    0.6458    1.7036 H   0  0  0  0  0  0  0  0  0  0  0  0
    0.2650   -0.9764    1.0557 H   0  0  0  0  0  0  0  0  0  0  0  0
    2.6083   -1.4710   -0.9698 H   0  0  0  0  0  0  0  0  0  0  0  0
    4.9407    2.0542    1.6244 H   0  0  0  0  0  0  0  0  0  0  0  0
   -1.4560   -0.4874   -1.4147 H   0  0  0  0  0  0  0  0  0  0  0  0
   -1.6716   -1.7288   -0.1628 H   0  0  0  0  0  0  0  0  0  0  0  0
   -5.3432    0.3256    3.4908 H   0  0  0  0  0  0  0  0  0  0  0  0
   -1.5673    1.1900    0.2337 H   0  0  0  0  0  0  0  0  0  0  0  0
   -3.1360   -0.0150    2.2332 H   0  0  0  0  0  0  0  0  0  0  0  0
  1 23  1  0
  2 24  1  0
  3  4  2  0
  3  5  1  0
  4 13  1  0
  5 15  2  0
  6  7  1  0
  6 12  1  0
  7 20  1  0
  8 12  2  0
  8 17  1  0
  9 14  1  0
  9 16  2  0
 10 13  1  0
 10 20  1  0
 11 21  2  0
 11 22  1  0
 12 16  1  0
 13 18  2  0
 14 17  2  0
 14 19  1  0
 15 18  1  0
 15 21  1  0
 16 23  1  0
 17 24  1  0
 18 22  1  0
  1 25  1  0
  1 26  1  0
  1 27  1  0
  2 28  1  0
  2 29  1  0
  2 30  1  0
  3 31  1  0
  4 32  1  0
  5 33  1  0
  6 34  1  0
  6 35  1  0
  7 36  1  0
  7 37  1  0
  8 38  1  0
  9 39  1  0
 10 40  1  0
 10 41  1  0
 11 42  1  0
 20 43  1  0
 22 44  1  0
M  END
