
     RDKit          3D

 40 43  0  0  0  0  0  0  0  0999 V2000
    4.2029    0.6067   -0.5128 C   0  0  0  0  0  0  0  0  0  0  0  0
   -2.0559    3.5511    0.8362 C   0  0  0  0  0  0  0  0  0  0  0  0
   -3.4213   -2.6972    0.3161 C   0  0  0  0  0  0  0  0  0  0  0  0
   -0.8886    3.5245    1.5898 C   0  0  0  0  0  0  0  0  0  0  0  0
   -2.3656   -3.3045    0.9802 C   0  0  0  0  0  0  0  0  0  0  0  0
   -2.3126    2.5330   -0.0797 C   0  0  0  0  0  0  0  0  0  0  0  0
   -3.2003   -1.5156   -0.3860 C   0  0  0  0  0  0  0  0  0  0  0  0
    0.0243    2.4828    1.4216 C   0  0  0  0  0  0  0  0  0  0  0  0
   -1.0949   -2.7267    0.9350 C   0  0  0  0  0  0  0  0  0  0  0  0
    2.8363   -1.3844   -0.4905 C   0  0  0  0  0  0  0  0  0  0  0  0
    1.3850   -1.9036   -0.5741 C   0  0  0  0  0  0  0  0  0  0  0  0
   -1.7311    0.3522   -1.1986 C   0  0  0  0  0  0  0  0  0  0  0  0
    1.8013    0.7931   -0.8886 C   0  0  0  0  0  0  0  0  0  0  0  0
   -1.3998    1.4790   -0.2567 C   0  0  0  0  0  0  0  0  0  0  0  0
   -1.9187   -0.9311   -0.4351 C   0  0  0  0  0  0  0  0  0  0  0  0
   -0.2139    1.4426    0.5002 C   0  0  0  0  0  0  0  0  0  0  0  0
   -0.8393   -1.5324    0.2338 C   0  0  0  0  0  0  0  0  0  0  0  0
    0.8679    0.3866    0.3012 C   0  0  0  0  0  0  0  0  0  0  0  0
    3.0179   -0.0377   -1.0725 N   0  0  0  0  0  0  0  0  0  0  0  0
    0.4630   -1.0454    0.2094 N   0  0  0  0  0  0  0  0  0  0  0  0
    4.3954    1.5599   -1.0174 H   0  0  0  0  0  0  0  0  0  0  0  0
    4.1013    0.7998    0.5612 H   0  0  0  0  0  0  0  0  0  0  0  0
    5.0905   -0.0162   -0.6705 H   0  0  0  0  0  0  0  0  0  0  0  0
   -2.7719    4.3577    0.9678 H   0  0  0  0  0  0  0  0  0  0  0  0
   -4.4144   -3.1358    0.3495 H   0  0  0  0  0  0  0  0  0  0  0  0
   -0.6869    4.3138    2.3089 H   0  0  0  0  0  0  0  0  0  0  0  0
   -2.5247   -4.2216    1.5398 H   0  0  0  0  0  0  0  0  0  0  0  0
   -3.2403    2.5567   -0.6471 H   0  0  0  0  0  0  0  0  0  0  0  0
   -4.0370   -1.0429   -0.8952 H   0  0  0  0  0  0  0  0  0  0  0  0
    0.9349    2.4894    2.0177 H   0  0  0  0  0  0  0  0  0  0  0  0
   -0.2861   -3.2085    1.4797 H   0  0  0  0  0  0  0  0  0  0  0  0
    3.4970   -2.0825   -1.0175 H   0  0  0  0  0  0  0  0  0  0  0  0
    3.1351   -1.3918    0.5669 H   0  0  0  0  0  0  0  0  0  0  0  0
    1.3765   -2.9318   -0.1933 H   0  0  0  0  0  0  0  0  0  0  0  0
    1.0648   -1.9361   -1.6241 H   0  0  0  0  0  0  0  0  0  0  0  0
   -2.6383    0.5920   -1.7681 H   0  0  0  0  0  0  0  0  0  0  0  0
   -0.9498    0.2323   -1.9570 H   0  0  0  0  0  0  0  0  0  0  0  0
    2.0731    1.8547   -0.8132 H   0  0  0  0  0  0  0  0  0  0  0  0
    1.2347    0.7144   -1.8247 H   0  0  0  0  0  0  0  0  0  0  0  0
    1.4896    0.4237    1.2076 H   0  0  0  0  0  0  0  0  0  0  0  0
  1 19  1  0
  2  4  2  0
  2  6  1  0
  3  5  2  0
  3  7  1  0
  4  8  1  0
  5  9  1  0
  6 14  2  0
  7 15  2  0
  8 16  2  0
  9 17  2  0
 10 11  1  0
 10 19  1  0
 11 20  1  0
 12 14  1  0
 12 15  1  0
 13 18  1  0
 13 19  1  0
 14 16  1  0
 15 17  1  0
 16 18  1  0
 17 20  1  0
 18 20  1  0
  1 21  1  0
  1 22  1  0
  1 23  1  0
  2 24  1  0
  3 25  1  0
  4 26  1  0
  5 27  1  0
  6 28  1  0
  7 29  1  0
  8 30  1  0
  9 31  1  0
 10 32  1  0
 10 33  1  0
 11 34  1  0
 11 35  1  0
 12 36  1  0
 12 37  1  0
 13 38  1  0
 13 39  1  0
 18 40  1  0
M  END
