
     RDKit          3D

 42 44  0  0  0  0  0  0  0  0999 V2000
    6.4373   -0.8447    0.9213 C   0  0  0  0  0  0  0  0  0  0  0  0
    5.4593   -0.4771    1.8436 C   0  0  0  0  0  0  0  0  0  0  0  0
    6.2227   -0.6383   -0.4402 C   0  0  0  0  0  0  0  0  0  0  0  0
   -5.5285   -1.3711    1.2083 C   0  0  0  0  0  0  0  0  0  0  0  0
    4.2659    0.0987    1.4054 C   0  0  0  0  0  0  0  0  0  0  0  0
    5.0301   -0.0626   -0.8807 C   0  0  0  0  0  0  0  0  0  0  0  0
   -6.4137   -0.3076    1.0852 C   0  0  0  0  0  0  0  0  0  0  0  0
   -4.1995   -1.2271    0.7899 C   0  0  0  0  0  0  0  0  0  0  0  0
    2.7426    0.9184   -0.4387 C   0  0  0  0  0  0  0  0  0  0  0  0
    1.6717   -0.1616   -0.6724 C   0  0  0  0  0  0  0  0  0  0  0  0
   -0.2379    1.3214   -0.2826 C   0  0  0  0  0  0  0  0  0  0  0  0
   -0.5183   -0.7128   -1.5978 C   0  0  0  0  0  0  0  0  0  0  0  0
   -1.7766    1.4117   -0.4195 C   0  0  0  0  0  0  0  0  0  0  0  0
   -1.5923   -1.0785   -0.5458 C   0  0  0  0  0  0  0  0  0  0  0  0
   -4.6307    1.0281    0.1315 C   0  0  0  0  0  0  0  0  0  0  0  0
    4.0427    0.3153    0.0388 C   0  0  0  0  0  0  0  0  0  0  0  0
   -5.9594    0.8895    0.5467 C   0  0  0  0  0  0  0  0  0  0  0  0
   -3.7123   -0.0288    0.2374 C   0  0  0  0  0  0  0  0  0  0  0  0
   -7.0462    2.2163    0.3859 Cl  0  0  0  0  0  0  0  0  0  0  0  0
    0.4119    0.3747   -1.2190 N   0  0  0  0  0  0  0  0  0  0  0  0
   -2.3929    0.0989   -0.1655 N   0  0  0  0  0  0  0  0  0  0  0  0
    7.3667   -1.2923    1.2634 H   0  0  0  0  0  0  0  0  0  0  0  0
    5.6263   -0.6386    2.9053 H   0  0  0  0  0  0  0  0  0  0  0  0
    6.9847   -0.9257   -1.1599 H   0  0  0  0  0  0  0  0  0  0  0  0
   -5.8628   -2.3133    1.6345 H   0  0  0  0  0  0  0  0  0  0  0  0
    3.5115    0.3788    2.1371 H   0  0  0  0  0  0  0  0  0  0  0  0
    4.8753    0.0900   -1.9467 H   0  0  0  0  0  0  0  0  0  0  0  0
   -7.4445   -0.4158    1.4090 H   0  0  0  0  0  0  0  0  0  0  0  0
   -3.5361   -2.0769    0.9294 H   0  0  0  0  0  0  0  0  0  0  0  0
    2.9203    1.4795   -1.3652 H   0  0  0  0  0  0  0  0  0  0  0  0
    2.4055    1.6543    0.3015 H   0  0  0  0  0  0  0  0  0  0  0  0
    2.0833   -0.8863   -1.3878 H   0  0  0  0  0  0  0  0  0  0  0  0
    1.4831   -0.7155    0.2572 H   0  0  0  0  0  0  0  0  0  0  0  0
    0.1866    2.3192   -0.4419 H   0  0  0  0  0  0  0  0  0  0  0  0
   -0.0208    1.0360    0.7562 H   0  0  0  0  0  0  0  0  0  0  0  0
    0.0259   -1.6180   -1.8944 H   0  0  0  0  0  0  0  0  0  0  0  0
   -1.0382   -0.3795   -2.5062 H   0  0  0  0  0  0  0  0  0  0  0  0
   -2.1252    2.1511    0.3117 H   0  0  0  0  0  0  0  0  0  0  0  0
   -2.0486    1.7655   -1.4213 H   0  0  0  0  0  0  0  0  0  0  0  0
   -1.1131   -1.4960    0.3477 H   0  0  0  0  0  0  0  0  0  0  0  0
   -2.2269   -1.8561   -0.9881 H   0  0  0  0  0  0  0  0  0  0  0  0
   -4.3289    1.9771   -0.3008 H   0  0  0  0  0  0  0  0  0  0  0  0
  1  2  2  0
  1  3  1  0
  2  5  1  0
  3  6  2  0
  4  7  2  0
  4  8  1  0
  5 16  2  0
  6 16  1  0
  7 17  1  0
  8 18  2  0
  9 10  1  0
  9 16  1  0
 10 20  1  0
 11 13  1  0
 11 20  1  0
 12 14  1  0
 12 20  1  0
 13 21  1  0
 14 21  1  0
 15 17  2  0
 15 18  1  0
 17 19  1  0
 18 21  1  0
  1 22  1  0
  2 23  1  0
  3 24  1  0
  4 25  1  0
  5 26  1  0
  6 27  1  0
  7 28  1  0
  8 29  1  0
  9 30  1  0
  9 31  1  0
 10 32  1  0
 10 33  1  0
 11 34  1  0
 11 35  1  0
 12 36  1  0
 12 37  1  0
 13 38  1  0
 13 39  1  0
 14 40  1  0
 14 41  1  0
 15 42  1  0
M  END
