
     RDKit          3D

 46 48  0  0  0  0  0  0  0  0999 V2000
    1.5051    3.8307    1.7915 C   0  0  0  0  0  0  0  0  0  0  0  0
   -4.1770    0.0288   -1.5973 C   0  0  0  0  0  0  0  0  0  0  0  0
    2.5001   -0.2189    1.2432 C   0  0  0  0  0  0  0  0  0  0  0  0
    3.1234   -1.4751   -0.7029 C   0  0  0  0  0  0  0  0  0  0  0  0
    3.6064   -0.7411    1.9267 C   0  0  0  0  0  0  0  0  0  0  0  0
    4.2290   -2.0002   -0.0277 C   0  0  0  0  0  0  0  0  0  0  0  0
   -0.9833   -1.2821    1.0750 C   0  0  0  0  0  0  0  0  0  0  0  0
   -0.9897    0.1745    1.5211 C   0  0  0  0  0  0  0  0  0  0  0  0
   -4.0578   -1.2767   -2.3581 C   0  0  0  0  0  0  0  0  0  0  0  0
   -3.3106    0.1031   -0.3353 C   0  0  0  0  0  0  0  0  0  0  0  0
    0.0638   -1.2250   -1.2503 C   0  0  0  0  0  0  0  0  0  0  0  0
    2.2273   -0.5794   -0.0803 C   0  0  0  0  0  0  0  0  0  0  0  0
    4.4653   -1.6315    1.2905 C   0  0  0  0  0  0  0  0  0  0  0  0
   -1.2399   -1.2170   -0.4321 C   0  0  0  0  0  0  0  0  0  0  0  0
    1.0485   -0.0658   -0.9135 C   0  0  0  0  0  0  0  0  0  0  0  0
   -1.0714    0.9794    0.2249 C   0  0  0  0  0  0  0  0  0  0  0  0
    0.2666    1.2207   -0.5203 C   0  0  0  0  0  0  0  0  0  0  0  0
    1.1396    2.3319    0.0304 C   0  0  0  0  0  0  0  0  0  0  0  0
   -4.4112   -2.3052   -1.5411 F   0  0  0  0  0  0  0  0  0  0  0  0
    6.1027   -2.4019    2.3080 I   0  0  0  0  0  0  0  0  0  0  0  0
   -1.8745    0.0999   -0.6654 N   0  0  0  0  0  0  0  0  0  0  0  0
    2.1170    2.7760   -0.5608 O   0  0  0  0  0  0  0  0  0  0  0  0
    0.7093    2.7792    1.2408 O   0  0  0  0  0  0  0  0  0  0  0  0
    2.5317    3.4883    1.9555 H   0  0  0  0  0  0  0  0  0  0  0  0
    1.0750    4.1093    2.7574 H   0  0  0  0  0  0  0  0  0  0  0  0
    1.4865    4.7082    1.1377 H   0  0  0  0  0  0  0  0  0  0  0  0
   -5.2228    0.1559   -1.2918 H   0  0  0  0  0  0  0  0  0  0  0  0
   -3.9359    0.8643   -2.2656 H   0  0  0  0  0  0  0  0  0  0  0  0
    1.8799    0.4797    1.7881 H   0  0  0  0  0  0  0  0  0  0  0  0
    2.9644   -1.7714   -1.7392 H   0  0  0  0  0  0  0  0  0  0  0  0
    3.7835   -0.4357    2.9551 H   0  0  0  0  0  0  0  0  0  0  0  0
    4.8915   -2.6876   -0.5467 H   0  0  0  0  0  0  0  0  0  0  0  0
   -1.7903   -1.8218    1.5846 H   0  0  0  0  0  0  0  0  0  0  0  0
   -0.0474   -1.7896    1.3250 H   0  0  0  0  0  0  0  0  0  0  0  0
   -0.1444    0.4271    2.1588 H   0  0  0  0  0  0  0  0  0  0  0  0
   -1.8879    0.3551    2.1264 H   0  0  0  0  0  0  0  0  0  0  0  0
   -4.7401   -1.2846   -3.2134 H   0  0  0  0  0  0  0  0  0  0  0  0
   -3.0460   -1.4579   -2.7294 H   0  0  0  0  0  0  0  0  0  0  0  0
   -3.5883   -0.6955    0.3633 H   0  0  0  0  0  0  0  0  0  0  0  0
   -3.5785    1.0454    0.1603 H   0  0  0  0  0  0  0  0  0  0  0  0
    0.5390   -2.2083   -1.1502 H   0  0  0  0  0  0  0  0  0  0  0  0
   -0.2077   -1.1349   -2.3122 H   0  0  0  0  0  0  0  0  0  0  0  0
   -1.8595   -2.0569   -0.7631 H   0  0  0  0  0  0  0  0  0  0  0  0
    1.5345    0.2023   -1.8666 H   0  0  0  0  0  0  0  0  0  0  0  0
   -1.5648    1.9450    0.3902 H   0  0  0  0  0  0  0  0  0  0  0  0
   -0.0609    1.6591   -1.4806 H   0  0  0  0  0  0  0  0  0  0  0  0
  1 23  1  0
  2  9  1  0
  2 10  1  0
  3  5  2  0
  3 12  1  0
  4  6  1  0
  4 12  2  0
  5 13  1  0
  6 13  2  0
  7  8  1  0
  7 14  1  0
  8 16  1  0
  9 19  1  0
 10 21  1  0
 11 14  1  0
 11 15  1  0
 12 15  1  0
 13 20  1  0
 14 21  1  0
 15 17  1  0
 16 17  1  0
 16 21  1  0
 17 18  1  0
 18 22  2  0
 18 23  1  0
  1 24  1  0
  1 25  1  0
  1 26  1  0
  2 27  1  0
  2 28  1  0
  3 29  1  0
  4 30  1  0
  5 31  1  0
  6 32  1  0
  7 33  1  0
  7 34  1  0
  8 35  1  0
  8 36  1  0
  9 37  1  0
  9 38  1  0
 10 39  1  0
 10 40  1  0
 11 41  1  0
 11 42  1  0
 14 43  1  0
 15 44  1  0
 16 45  1  0
 17 46  1  0
M  END
