
     RDKit          3D

 45 48  0  0  0  0  0  0  0  0999 V2000
    5.3808    1.6236   -0.6752 C   0  0  0  0  0  0  0  0  0  0  0  0
   -1.1796    4.8006    0.3599 C   0  0  0  0  0  0  0  0  0  0  0  0
   -3.3707   -2.5500   -1.5795 C   0  0  0  0  0  0  0  0  0  0  0  0
    3.5588    0.8354    0.8706 C   0  0  0  0  0  0  0  0  0  0  0  0
    3.2839    0.5024   -1.4989 C   0  0  0  0  0  0  0  0  0  0  0  0
    2.3142    0.2426    1.0984 C   0  0  0  0  0  0  0  0  0  0  0  0
    2.0384   -0.0892   -1.2717 C   0  0  0  0  0  0  0  0  0  0  0  0
   -2.0114   -2.7905    1.1123 C   0  0  0  0  0  0  0  0  0  0  0  0
   -2.6805   -1.4165    1.1301 C   0  0  0  0  0  0  0  0  0  0  0  0
    0.1014   -2.3164   -0.2253 C   0  0  0  0  0  0  0  0  0  0  0  0
    4.0604    0.9571   -0.4288 C   0  0  0  0  0  0  0  0  0  0  0  0
   -1.2056    3.3892    0.7748 C   0  0  0  0  0  0  0  0  0  0  0  0
    1.5405   -0.2347    0.0309 C   0  0  0  0  0  0  0  0  0  0  0  0
   -1.3374   -2.8698   -0.2581 C   0  0  0  0  0  0  0  0  0  0  0  0
    0.1780   -0.8602    0.3046 C   0  0  0  0  0  0  0  0  0  0  0  0
   -2.3312   -0.7856   -0.2284 C   0  0  0  0  0  0  0  0  0  0  0  0
   -0.9939    0.0045   -0.2361 C   0  0  0  0  0  0  0  0  0  0  0  0
   -1.1271    1.2850    0.5171 C   0  0  0  0  0  0  0  0  0  0  0  0
   -1.3352    2.8656    1.9744 N   0  0  0  0  0  0  0  0  0  0  0  0
   -1.2809    1.4984    1.8078 N   0  0  0  0  0  0  0  0  0  0  0  0
   -2.1190   -1.9566   -1.1126 N   0  0  0  0  0  0  0  0  0  0  0  0
   -1.0806    2.4468   -0.2087 O   0  0  0  0  0  0  0  0  0  0  0  0
    5.8629    1.2165   -1.5702 H   0  0  0  0  0  0  0  0  0  0  0  0
    5.2374    2.7002   -0.8090 H   0  0  0  0  0  0  0  0  0  0  0  0
    6.0642    1.4589    0.1645 H   0  0  0  0  0  0  0  0  0  0  0  0
   -0.2335    5.0373   -0.1357 H   0  0  0  0  0  0  0  0  0  0  0  0
   -1.2868    5.4606    1.2258 H   0  0  0  0  0  0  0  0  0  0  0  0
   -1.9982    5.0115   -0.3345 H   0  0  0  0  0  0  0  0  0  0  0  0
   -3.9193   -1.8296   -2.1960 H   0  0  0  0  0  0  0  0  0  0  0  0
   -4.0344   -2.8809   -0.7742 H   0  0  0  0  0  0  0  0  0  0  0  0
   -3.1592   -3.4137   -2.2195 H   0  0  0  0  0  0  0  0  0  0  0  0
    4.1321    1.2044    1.7180 H   0  0  0  0  0  0  0  0  0  0  0  0
    3.6427    0.6065   -2.5203 H   0  0  0  0  0  0  0  0  0  0  0  0
    1.9488    0.1692    2.1211 H   0  0  0  0  0  0  0  0  0  0  0  0
    1.4593   -0.4302   -2.1273 H   0  0  0  0  0  0  0  0  0  0  0  0
   -1.3043   -2.9109    1.9396 H   0  0  0  0  0  0  0  0  0  0  0  0
   -2.7749   -3.5705    1.2158 H   0  0  0  0  0  0  0  0  0  0  0  0
   -2.3546   -0.8271    1.9905 H   0  0  0  0  0  0  0  0  0  0  0  0
   -3.7661   -1.5433    1.2222 H   0  0  0  0  0  0  0  0  0  0  0  0
    0.5141   -2.3842   -1.2401 H   0  0  0  0  0  0  0  0  0  0  0  0
    0.7325   -2.9613    0.4003 H   0  0  0  0  0  0  0  0  0  0  0  0
   -1.3134   -3.8953   -0.6440 H   0  0  0  0  0  0  0  0  0  0  0  0
    0.0714   -0.9287    1.3972 H   0  0  0  0  0  0  0  0  0  0  0  0
   -3.1402   -0.1372   -0.5876 H   0  0  0  0  0  0  0  0  0  0  0  0
   -0.7837    0.2659   -1.2842 H   0  0  0  0  0  0  0  0  0  0  0  0
  1 11  1  0
  2 12  1  0
  3 21  1  0
  4  6  2  0
  4 11  1  0
  5  7  1  0
  5 11  2  0
  6 13  1  0
  7 13  2  0
  8  9  1  0
  8 14  1  0
  9 16  1  0
 10 14  1  0
 10 15  1  0
 12 19  2  0
 12 22  1  0
 13 15  1  0
 14 21  1  0
 15 17  1  0
 16 17  1  0
 16 21  1  0
 17 18  1  0
 18 20  2  0
 18 22  1  0
 19 20  1  0
  1 23  1  0
  1 24  1  0
  1 25  1  0
  2 26  1  0
  2 27  1  0
  2 28  1  0
  3 29  1  0
  3 30  1  0
  3 31  1  0
  4 32  1  0
  5 33  1  0
  6 34  1  0
  7 35  1  0
  8 36  1  0
  8 37  1  0
  9 38  1  0
  9 39  1  0
 10 40  1  0
 10 41  1  0
 14 42  1  0
 15 43  1  0
 16 44  1  0
 17 45  1  0
M  END
