
     RDKit          3D

 48 50  0  0  0  0  0  0  0  0999 V2000
    2.1031    1.7589   -0.9133 C   0  0  0  0  0  0  0  0  0  0  0  0
   -5.7011   -2.9413   -0.5502 C   0  0  0  0  0  0  0  0  0  0  0  0
   -4.9107    1.6009   -2.2160 C   0  0  0  0  0  0  0  0  0  0  0  0
    7.1620    0.1434   -0.8679 C   0  0  0  0  0  0  0  0  0  0  0  0
    6.1816   -0.4038   -1.6934 C   0  0  0  0  0  0  0  0  0  0  0  0
    6.8247    0.5990    0.4050 C   0  0  0  0  0  0  0  0  0  0  0  0
    4.8622   -0.4954   -1.2471 C   0  0  0  0  0  0  0  0  0  0  0  0
    5.5061    0.5086    0.8531 C   0  0  0  0  0  0  0  0  0  0  0  0
    0.0667    0.2705    0.8127 C   0  0  0  0  0  0  0  0  0  0  0  0
   -1.1583    0.2945    1.7356 C   0  0  0  0  0  0  0  0  0  0  0  0
    3.0816   -0.1265    0.5148 C   0  0  0  0  0  0  0  0  0  0  0  0
   -2.4006   -1.8841    1.7815 C   0  0  0  0  0  0  0  0  0  0  0  0
    2.3400    1.2314    0.5073 C   0  0  0  0  0  0  0  0  0  0  0  0
    4.5115   -0.0388    0.0306 C   0  0  0  0  0  0  0  0  0  0  0  0
   -3.1516   -0.3957    0.3445 C   0  0  0  0  0  0  0  0  0  0  0  0
   -3.8864   -1.5425    0.3115 C   0  0  0  0  0  0  0  0  0  0  0  0
   -3.4222    0.7229   -0.4908 C   0  0  0  0  0  0  0  0  0  0  0  0
   -5.3035   -0.6508   -1.3934 C   0  0  0  0  0  0  0  0  0  0  0  0
    1.0893    1.2048    1.2977 N   0  0  0  0  0  0  0  0  0  0  0  0
   -3.4252   -2.4698    1.1954 N   0  0  0  0  0  0  0  0  0  0  0  0
   -4.9543   -1.6965   -0.5388 N   0  0  0  0  0  0  0  0  0  0  0  0
   -4.5328    0.5280   -1.3168 N   0  0  0  0  0  0  0  0  0  0  0  0
   -2.1935   -0.6192    1.2933 N   0  0  0  0  0  0  0  0  0  0  0  0
   -2.7342    1.7394   -0.4825 O   0  0  0  0  0  0  0  0  0  0  0  0
   -6.2427   -0.7439   -2.1893 O   0  0  0  0  0  0  0  0  0  0  0  0
    1.5769    1.0296   -1.5377 H   0  0  0  0  0  0  0  0  0  0  0  0
    3.0526    1.9949   -1.4050 H   0  0  0  0  0  0  0  0  0  0  0  0
    1.5142    2.6828   -0.8963 H   0  0  0  0  0  0  0  0  0  0  0  0
   -5.0291   -3.7576   -0.8336 H   0  0  0  0  0  0  0  0  0  0  0  0
   -6.1028   -3.1273    0.4510 H   0  0  0  0  0  0  0  0  0  0  0  0
   -6.5327   -2.9116   -1.2591 H   0  0  0  0  0  0  0  0  0  0  0  0
   -4.3447    2.5181   -2.0347 H   0  0  0  0  0  0  0  0  0  0  0  0
   -4.7368    1.2723   -3.2458 H   0  0  0  0  0  0  0  0  0  0  0  0
   -5.9777    1.8158   -2.0965 H   0  0  0  0  0  0  0  0  0  0  0  0
    8.1891    0.2134   -1.2160 H   0  0  0  0  0  0  0  0  0  0  0  0
    6.4447   -0.7603   -2.6858 H   0  0  0  0  0  0  0  0  0  0  0  0
    7.5891    1.0240    1.0502 H   0  0  0  0  0  0  0  0  0  0  0  0
    4.1098   -0.9241   -1.9050 H   0  0  0  0  0  0  0  0  0  0  0  0
    5.2580    0.8660    1.8502 H   0  0  0  0  0  0  0  0  0  0  0  0
   -0.2397    0.5286   -0.2066 H   0  0  0  0  0  0  0  0  0  0  0  0
    0.4595   -0.7519    0.7898 H   0  0  0  0  0  0  0  0  0  0  0  0
   -1.5994    1.2957    1.7962 H   0  0  0  0  0  0  0  0  0  0  0  0
   -0.8773    0.0036    2.7553 H   0  0  0  0  0  0  0  0  0  0  0  0
    3.0997   -0.5342    1.5348 H   0  0  0  0  0  0  0  0  0  0  0  0
    2.5405   -0.8636   -0.0919 H   0  0  0  0  0  0  0  0  0  0  0  0
   -1.7820   -2.3237    2.5544 H   0  0  0  0  0  0  0  0  0  0  0  0
    2.9793    1.9664    1.0135 H   0  0  0  0  0  0  0  0  0  0  0  0
    0.6969    2.1494    1.2998 H   0  0  0  0  0  0  0  0  0  0  0  0
  1 13  1  0
  2 21  1  0
  3 22  1  0
  4  5  2  0
  4  6  1  0
  5  7  1  0
  6  8  2  0
  7 14  2  0
  8 14  1  0
  9 10  1  0
  9 19  1  0
 10 23  1  0
 11 13  1  0
 11 14  1  0
 12 20  2  0
 12 23  1  0
 13 19  1  0
 15 16  2  0
 15 17  1  0
 15 23  1  0
 16 20  1  0
 16 21  1  0
 17 22  1  0
 17 24  2  0
 18 21  1  0
 18 22  1  0
 18 25  2  0
  1 26  1  0
  1 27  1  0
  1 28  1  0
  2 29  1  0
  2 30  1  0
  2 31  1  0
  3 32  1  0
  3 33  1  0
  3 34  1  0
  4 35  1  0
  5 36  1  0
  6 37  1  0
  7 38  1  0
  8 39  1  0
  9 40  1  0
  9 41  1  0
 10 42  1  0
 10 43  1  0
 11 44  1  0
 11 45  1  0
 12 46  1  0
 13 47  1  0
 19 48  1  0
M  END
