
     RDKit          3D

 44 46  0  0  0  0  0  0  0  0999 V2000
    1.7622    3.2645   -0.4647 C   0  0  0  0  0  0  0  0  0  0  0  0
   -3.6925   -1.1189   -0.7336 C   0  0  0  0  0  0  0  0  0  0  0  0
    1.0175    2.5669   -1.6039 C   0  0  0  0  0  0  0  0  0  0  0  0
    1.7308    2.4680    0.8409 C   0  0  0  0  0  0  0  0  0  0  0  0
   -2.6891   -1.4707    0.3608 C   0  0  0  0  0  0  0  0  0  0  0  0
   -3.2361    0.0612   -1.5863 C   0  0  0  0  0  0  0  0  0  0  0  0
    1.6176   -3.1254   -0.4248 C   0  0  0  0  0  0  0  0  0  0  0  0
    1.0031   -1.9021   -0.7090 C   0  0  0  0  0  0  0  0  0  0  0  0
    2.2929   -3.2999    0.7764 C   0  0  0  0  0  0  0  0  0  0  0  0
    1.0847    1.0505   -1.4478 C   0  0  0  0  0  0  0  0  0  0  0  0
    0.4517    1.6391    0.9423 C   0  0  0  0  0  0  0  0  0  0  0  0
   -1.8570   -0.2628    0.7875 C   0  0  0  0  0  0  0  0  0  0  0  0
   -1.7112    0.1679   -1.6487 C   0  0  0  0  0  0  0  0  0  0  0  0
    1.7401   -1.0238    1.4032 C   0  0  0  0  0  0  0  0  0  0  0  0
    1.0398   -0.8216    0.1988 C   0  0  0  0  0  0  0  0  0  0  0  0
    2.3510   -2.2494    1.6791 C   0  0  0  0  0  0  0  0  0  0  0  0
    0.3427    0.5215   -0.1646 C   0  0  0  0  0  0  0  0  0  0  0  0
   -1.1256    0.3451   -0.3272 N   0  0  0  0  0  0  0  0  0  0  0  0
    3.0289   -2.4567    2.8454 O   0  0  0  0  0  0  0  0  0  0  0  0
    2.8075    3.4351   -0.7490 H   0  0  0  0  0  0  0  0  0  0  0  0
    1.3206    4.2563   -0.3097 H   0  0  0  0  0  0  0  0  0  0  0  0
   -3.8518   -2.0004   -1.3663 H   0  0  0  0  0  0  0  0  0  0  0  0
   -4.6662   -0.8806   -0.2890 H   0  0  0  0  0  0  0  0  0  0  0  0
    1.4553    2.8688   -2.5621 H   0  0  0  0  0  0  0  0  0  0  0  0
   -0.0282    2.8959   -1.6213 H   0  0  0  0  0  0  0  0  0  0  0  0
    2.6095    1.8153    0.8978 H   0  0  0  0  0  0  0  0  0  0  0  0
    1.8011    3.1591    1.6886 H   0  0  0  0  0  0  0  0  0  0  0  0
   -3.2190   -1.8887    1.2245 H   0  0  0  0  0  0  0  0  0  0  0  0
   -2.0207   -2.2617   -0.0021 H   0  0  0  0  0  0  0  0  0  0  0  0
   -3.6509   -0.0310   -2.5967 H   0  0  0  0  0  0  0  0  0  0  0  0
   -3.6460    0.9904   -1.1688 H   0  0  0  0  0  0  0  0  0  0  0  0
    1.5683   -3.9386   -1.1438 H   0  0  0  0  0  0  0  0  0  0  0  0
    0.4926   -1.8013   -1.6621 H   0  0  0  0  0  0  0  0  0  0  0  0
    2.7735   -4.2458    1.0065 H   0  0  0  0  0  0  0  0  0  0  0  0
    0.7184    0.5669   -2.3604 H   0  0  0  0  0  0  0  0  0  0  0  0
    2.1494    0.7751   -1.4041 H   0  0  0  0  0  0  0  0  0  0  0  0
    0.3409    1.2335    1.9538 H   0  0  0  0  0  0  0  0  0  0  0  0
   -0.3835    2.3493    0.8372 H   0  0  0  0  0  0  0  0  0  0  0  0
   -2.5253    0.4980    1.2107 H   0  0  0  0  0  0  0  0  0  0  0  0
   -1.2017   -0.5673    1.6103 H   0  0  0  0  0  0  0  0  0  0  0  0
   -1.4765    1.0266   -2.2862 H   0  0  0  0  0  0  0  0  0  0  0  0
   -1.3240   -0.7287   -2.1417 H   0  0  0  0  0  0  0  0  0  0  0  0
    1.8232   -0.2323    2.1381 H   0  0  0  0  0  0  0  0  0  0  0  0
    2.9821   -1.6475    3.3796 H   0  0  0  0  0  0  0  0  0  0  0  0
  1  3  1  0
  1  4  1  0
  2  5  1  0
  2  6  1  0
  3 10  1  0
  4 11  1  0
  5 12  1  0
  6 13  1  0
  7  8  2  0
  7  9  1  0
  8 15  1  0
  9 16  2  0
 10 17  1  0
 11 17  1  0
 12 18  1  0
 13 18  1  0
 14 15  2  0
 14 16  1  0
 15 17  1  0
 16 19  1  0
 17 18  1  0
  1 20  1  0
  1 21  1  0
  2 22  1  0
  2 23  1  0
  3 24  1  0
  3 25  1  0
  4 26  1  0
  4 27  1  0
  5 28  1  0
  5 29  1  0
  6 30  1  0
  6 31  1  0
  7 32  1  0
  8 33  1  0
  9 34  1  0
 10 35  1  0
 10 36  1  0
 11 37  1  0
 11 38  1  0
 12 39  1  0
 12 40  1  0
 13 41  1  0
 13 42  1  0
 14 43  1  0
 19 44  1  0
M  END
