
     RDKit          3D

 45 46  0  0  0  0  0  0  0  0999 V2000
   -1.6320    0.6040    3.3366 C   0  0  0  0  0  0  0  0  0  0  0  0
   -0.7740   -1.9553   -3.3065 C   0  0  0  0  0  0  0  0  0  0  0  0
    6.5775    0.9637    0.3862 C   0  0  0  0  0  0  0  0  0  0  0  0
    6.2992   -0.1729   -0.3718 C   0  0  0  0  0  0  0  0  0  0  0  0
    5.6649    1.4029    1.3440 C   0  0  0  0  0  0  0  0  0  0  0  0
    5.1080   -0.8725   -0.1712 C   0  0  0  0  0  0  0  0  0  0  0  0
    4.4744    0.7032    1.5474 C   0  0  0  0  0  0  0  0  0  0  0  0
   -4.1788    1.3021   -1.1231 C   0  0  0  0  0  0  0  0  0  0  0  0
    2.8983   -1.1939    1.0111 C   0  0  0  0  0  0  0  0  0  0  0  0
   -5.4639    0.5625   -0.7221 C   0  0  0  0  0  0  0  0  0  0  0  0
    1.7244   -0.5662    0.2646 C   0  0  0  0  0  0  0  0  0  0  0  0
   -2.4466    0.7328    0.6297 C   0  0  0  0  0  0  0  0  0  0  0  0
   -2.2013   -0.2086   -1.5923 C   0  0  0  0  0  0  0  0  0  0  0  0
    4.1873   -0.4436    0.7945 C   0  0  0  0  0  0  0  0  0  0  0  0
   -2.9124    0.5981   -0.6871 C   0  0  0  0  0  0  0  0  0  0  0  0
   -1.2834    0.0822    1.0453 C   0  0  0  0  0  0  0  0  0  0  0  0
   -1.0309   -0.8636   -1.1996 C   0  0  0  0  0  0  0  0  0  0  0  0
   -0.5701   -0.6925    0.1157 C   0  0  0  0  0  0  0  0  0  0  0  0
   -5.7986    0.7300    0.6923 N   0  0  0  0  0  0  0  0  0  0  0  0
   -0.7530    0.1689    2.3074 O   0  0  0  0  0  0  0  0  0  0  0  0
   -0.2718   -1.6707   -2.0092 O   0  0  0  0  0  0  0  0  0  0  0  0
    0.5611   -1.3596    0.5341 O   0  0  0  0  0  0  0  0  0  0  0  0
   -1.8398    1.6753    3.2445 H   0  0  0  0  0  0  0  0  0  0  0  0
   -2.5589    0.0207    3.3473 H   0  0  0  0  0  0  0  0  0  0  0  0
   -1.1275    0.4458    4.2962 H   0  0  0  0  0  0  0  0  0  0  0  0
   -0.0814   -2.6539   -3.7867 H   0  0  0  0  0  0  0  0  0  0  0  0
   -1.7542   -2.4403   -3.2557 H   0  0  0  0  0  0  0  0  0  0  0  0
   -0.8117   -1.0501   -3.9191 H   0  0  0  0  0  0  0  0  0  0  0  0
    7.5066    1.5055    0.2308 H   0  0  0  0  0  0  0  0  0  0  0  0
    7.0137   -0.5197   -1.1157 H   0  0  0  0  0  0  0  0  0  0  0  0
    5.8812    2.2889    1.9357 H   0  0  0  0  0  0  0  0  0  0  0  0
    4.9038   -1.7565   -0.7704 H   0  0  0  0  0  0  0  0  0  0  0  0
    3.7717    1.0549    2.2996 H   0  0  0  0  0  0  0  0  0  0  0  0
   -4.1813    2.3281   -0.7300 H   0  0  0  0  0  0  0  0  0  0  0  0
   -4.1658    1.4104   -2.2165 H   0  0  0  0  0  0  0  0  0  0  0  0
    2.6753   -1.2448    2.0843 H   0  0  0  0  0  0  0  0  0  0  0  0
    3.0150   -2.2408    0.7023 H   0  0  0  0  0  0  0  0  0  0  0  0
   -5.3777   -0.5071   -0.9466 H   0  0  0  0  0  0  0  0  0  0  0  0
   -6.2978    0.9543   -1.3155 H   0  0  0  0  0  0  0  0  0  0  0  0
    1.5805    0.4705    0.5965 H   0  0  0  0  0  0  0  0  0  0  0  0
    1.9260   -0.5607   -0.8155 H   0  0  0  0  0  0  0  0  0  0  0  0
   -3.0161    1.3539    1.3153 H   0  0  0  0  0  0  0  0  0  0  0  0
   -2.5827   -0.3086   -2.6025 H   0  0  0  0  0  0  0  0  0  0  0  0
   -6.6537    0.2133    0.8962 H   0  0  0  0  0  0  0  0  0  0  0  0
   -6.0033    1.7098    0.8838 H   0  0  0  0  0  0  0  0  0  0  0  0
  1 20  1  0
  2 21  1  0
  3  4  2  0
  3  5  1  0
  4  6  1  0
  5  7  2  0
  6 14  2  0
  7 14  1  0
  8 10  1  0
  8 15  1  0
  9 11  1  0
  9 14  1  0
 10 19  1  0
 11 22  1  0
 12 15  2  0
 12 16  1  0
 13 15  1  0
 13 17  2  0
 16 18  2  0
 16 20  1  0
 17 18  1  0
 17 21  1  0
 18 22  1  0
  1 23  1  0
  1 24  1  0
  1 25  1  0
  2 26  1  0
  2 27  1  0
  2 28  1  0
  3 29  1  0
  4 30  1  0
  5 31  1  0
  6 32  1  0
  7 33  1  0
  8 34  1  0
  8 35  1  0
  9 36  1  0
  9 37  1  0
 10 38  1  0
 10 39  1  0
 11 40  1  0
 11 41  1  0
 12 42  1  0
 13 43  1  0
 19 44  1  0
 19 45  1  0
M  END
