
     RDKit          3D

 46 48  0  0  0  0  0  0  0  0999 V2000
   -1.2420    4.2638   -0.1651 C   0  0  0  0  0  0  0  0  0  0  0  0
   -3.6738   -1.7221    1.9326 C   0  0  0  0  0  0  0  0  0  0  0  0
   -2.2254    3.3013    0.4741 C   0  0  0  0  0  0  0  0  0  0  0  0
    5.6918    1.8243   -0.5224 C   0  0  0  0  0  0  0  0  0  0  0  0
    5.8220    0.5509   -1.0757 C   0  0  0  0  0  0  0  0  0  0  0  0
    4.4644    2.2412   -0.0077 C   0  0  0  0  0  0  0  0  0  0  0  0
    4.7219   -0.3081   -1.1171 C   0  0  0  0  0  0  0  0  0  0  0  0
    3.3610    1.3855   -0.0476 C   0  0  0  0  0  0  0  0  0  0  0  0
   -1.9352   -3.2668    0.0033 C   0  0  0  0  0  0  0  0  0  0  0  0
   -2.6609   -2.2339   -0.8661 C   0  0  0  0  0  0  0  0  0  0  0  0
   -0.0624   -1.8537    1.0063 C   0  0  0  0  0  0  0  0  0  0  0  0
    3.4837    0.1058   -0.6076 C   0  0  0  0  0  0  0  0  0  0  0  0
   -1.4555   -2.4752    1.2255 C   0  0  0  0  0  0  0  0  0  0  0  0
   -2.5418   -0.9149   -0.0880 C   0  0  0  0  0  0  0  0  0  0  0  0
   -0.0016   -1.0164   -0.2832 C   0  0  0  0  0  0  0  0  0  0  0  0
   -1.2572   -0.1393   -0.4643 C   0  0  0  0  0  0  0  0  0  0  0  0
    2.3425   -0.8458   -0.6718 C   0  0  0  0  0  0  0  0  0  0  0  0
   -1.2009    1.1653    0.3174 C   0  0  0  0  0  0  0  0  0  0  0  0
   -2.4026   -1.3509    1.3152 N   0  0  0  0  0  0  0  0  0  0  0  0
    2.4504   -2.0177   -0.9957 O   0  0  0  0  0  0  0  0  0  0  0  0
   -0.4195    1.4441    1.2161 O   0  0  0  0  0  0  0  0  0  0  0  0
   -2.1540    2.0205   -0.1687 O   0  0  0  0  0  0  0  0  0  0  0  0
    1.1912   -0.2146   -0.3422 O   0  0  0  0  0  0  0  0  0  0  0  0
   -0.2118    3.9158   -0.0394 H   0  0  0  0  0  0  0  0  0  0  0  0
   -1.3304    5.2597    0.2782 H   0  0  0  0  0  0  0  0  0  0  0  0
   -1.4231    4.3390   -1.2423 H   0  0  0  0  0  0  0  0  0  0  0  0
   -4.3389   -0.8525    1.9717 H   0  0  0  0  0  0  0  0  0  0  0  0
   -3.5092   -2.0380    2.9686 H   0  0  0  0  0  0  0  0  0  0  0  0
   -4.2013   -2.5283    1.4128 H   0  0  0  0  0  0  0  0  0  0  0  0
   -3.2461    3.6721    0.3341 H   0  0  0  0  0  0  0  0  0  0  0  0
   -2.0608    3.2154    1.5543 H   0  0  0  0  0  0  0  0  0  0  0  0
    6.5494    2.4919   -0.4882 H   0  0  0  0  0  0  0  0  0  0  0  0
    6.7802    0.2252   -1.4727 H   0  0  0  0  0  0  0  0  0  0  0  0
    4.3653    3.2316    0.4299 H   0  0  0  0  0  0  0  0  0  0  0  0
    4.8333   -1.3013   -1.5477 H   0  0  0  0  0  0  0  0  0  0  0  0
    2.4151    1.7257    0.3700 H   0  0  0  0  0  0  0  0  0  0  0  0
   -2.6408   -4.0509    0.3027 H   0  0  0  0  0  0  0  0  0  0  0  0
   -1.1154   -3.7523   -0.5361 H   0  0  0  0  0  0  0  0  0  0  0  0
   -2.2344   -2.1736   -1.8726 H   0  0  0  0  0  0  0  0  0  0  0  0
   -3.7129   -2.5240   -0.9743 H   0  0  0  0  0  0  0  0  0  0  0  0
    0.2139   -1.2314    1.8677 H   0  0  0  0  0  0  0  0  0  0  0  0
    0.6929   -2.6478    0.9645 H   0  0  0  0  0  0  0  0  0  0  0  0
   -1.4343   -3.0886    2.1332 H   0  0  0  0  0  0  0  0  0  0  0  0
   -3.4220   -0.2794   -0.2402 H   0  0  0  0  0  0  0  0  0  0  0  0
    0.0251   -1.7038   -1.1397 H   0  0  0  0  0  0  0  0  0  0  0  0
   -1.2899    0.1522   -1.5239 H   0  0  0  0  0  0  0  0  0  0  0  0
  1  3  1  0
  2 19  1  0
  3 22  1  0
  4  5  2  0
  4  6  1  0
  5  7  1  0
  6  8  2  0
  7 12  2  0
  8 12  1  0
  9 10  1  0
  9 13  1  0
 10 14  1  0
 11 13  1  0
 11 15  1  0
 12 17  1  0
 13 19  1  0
 14 16  1  0
 14 19  1  0
 15 16  1  0
 15 23  1  0
 16 18  1  0
 17 20  2  0
 17 23  1  0
 18 21  2  0
 18 22  1  0
  1 24  1  0
  1 25  1  0
  1 26  1  0
  2 27  1  0
  2 28  1  0
  2 29  1  0
  3 30  1  0
  3 31  1  0
  4 32  1  0
  5 33  1  0
  6 34  1  0
  7 35  1  0
  8 36  1  0
  9 37  1  0
  9 38  1  0
 10 39  1  0
 10 40  1  0
 11 41  1  0
 11 42  1  0
 13 43  1  0
 14 44  1  0
 15 45  1  0
 16 46  1  0
M  END
