
     RDKit          3D

 45 46  0  0  0  0  0  0  0  0999 V2000
   -4.7711    2.8590   -0.5934 C   0  0  0  0  0  0  0  0  0  0  0  0
   -3.8152   -2.8168   -1.1967 C   0  0  0  0  0  0  0  0  0  0  0  0
    6.7774   -0.6860    2.0380 C   0  0  0  0  0  0  0  0  0  0  0  0
   -4.8038    1.6398   -0.0363 C   0  0  0  0  0  0  0  0  0  0  0  0
   -3.0872   -2.1208   -0.3123 C   0  0  0  0  0  0  0  0  0  0  0  0
    5.9251   -0.6896    0.7805 C   0  0  0  0  0  0  0  0  0  0  0  0
    3.9018   -0.4930   -1.2053 C   0  0  0  0  0  0  0  0  0  0  0  0
    2.8873   -0.3285   -2.1585 C   0  0  0  0  0  0  0  0  0  0  0  0
   -0.7441    1.2107    0.9547 C   0  0  0  0  0  0  0  0  0  0  0  0
   -3.9108    1.1988    1.0905 C   0  0  0  0  0  0  0  0  0  0  0  0
   -3.6584   -1.1909    0.7226 C   0  0  0  0  0  0  0  0  0  0  0  0
   -1.7471    0.1391    1.4331 C   0  0  0  0  0  0  0  0  0  0  0  0
    2.4092    0.2081    0.5655 C   0  0  0  0  0  0  0  0  0  0  0  0
   -0.5048    0.7851   -1.5676 C   0  0  0  0  0  0  0  0  0  0  0  0
    0.0027    0.8126   -0.2835 C   0  0  0  0  0  0  0  0  0  0  0  0
    3.6737   -0.2261    0.1436 C   0  0  0  0  0  0  0  0  0  0  0  0
    1.3692    0.3878   -0.3718 C   0  0  0  0  0  0  0  0  0  0  0  0
    1.6366    0.1141   -1.7127 C   0  0  0  0  0  0  0  0  0  0  0  0
    0.4787    0.3603   -2.4149 N   0  0  0  0  0  0  0  0  0  0  0  0
   -3.0071    0.1254    0.6544 N   0  0  0  0  0  0  0  0  0  0  0  0
    4.5911   -0.3494    1.1528 O   0  0  0  0  0  0  0  0  0  0  0  0
   -5.4403    3.1127   -1.4101 H   0  0  0  0  0  0  0  0  0  0  0  0
   -4.0684    3.6168   -0.2629 H   0  0  0  0  0  0  0  0  0  0  0  0
   -4.8973   -2.7582   -1.2188 H   0  0  0  0  0  0  0  0  0  0  0  0
   -3.3330   -3.4593   -1.9248 H   0  0  0  0  0  0  0  0  0  0  0  0
    6.3929   -1.4090    2.7664 H   0  0  0  0  0  0  0  0  0  0  0  0
    6.7495    0.2980    2.5192 H   0  0  0  0  0  0  0  0  0  0  0  0
    7.8170   -0.9376    1.8063 H   0  0  0  0  0  0  0  0  0  0  0  0
   -5.5177    0.9131   -0.4161 H   0  0  0  0  0  0  0  0  0  0  0  0
   -2.0042   -2.2147   -0.3457 H   0  0  0  0  0  0  0  0  0  0  0  0
    6.3260    0.0494    0.0766 H   0  0  0  0  0  0  0  0  0  0  0  0
    5.9504   -1.6900    0.3333 H   0  0  0  0  0  0  0  0  0  0  0  0
    4.8674   -0.8366   -1.5595 H   0  0  0  0  0  0  0  0  0  0  0  0
    3.0721   -0.5379   -3.2071 H   0  0  0  0  0  0  0  0  0  0  0  0
   -0.0245    1.3893    1.7652 H   0  0  0  0  0  0  0  0  0  0  0  0
   -1.2376    2.1756    0.7819 H   0  0  0  0  0  0  0  0  0  0  0  0
   -4.5211    0.8841    1.9471 H   0  0  0  0  0  0  0  0  0  0  0  0
   -3.3452    2.0724    1.4396 H   0  0  0  0  0  0  0  0  0  0  0  0
   -3.5480   -1.6338    1.7203 H   0  0  0  0  0  0  0  0  0  0  0  0
   -4.7383   -1.1054    0.5467 H   0  0  0  0  0  0  0  0  0  0  0  0
   -1.2428   -0.8353    1.3796 H   0  0  0  0  0  0  0  0  0  0  0  0
   -1.9752    0.3009    2.4952 H   0  0  0  0  0  0  0  0  0  0  0  0
    2.2371    0.4117    1.6179 H   0  0  0  0  0  0  0  0  0  0  0  0
   -1.4951    1.0149   -1.9368 H   0  0  0  0  0  0  0  0  0  0  0  0
    0.3729    0.2389   -3.4122 H   0  0  0  0  0  0  0  0  0  0  0  0
  1  4  2  3
  2  5  2  3
  3  6  1  0
  4 10  1  0
  5 11  1  0
  6 21  1  0
  7  8  2  0
  7 16  1  0
  8 18  1  0
  9 12  1  0
  9 15  1  0
 10 20  1  0
 11 20  1  0
 12 20  1  0
 13 16  2  0
 13 17  1  0
 14 15  2  0
 14 19  1  0
 15 17  1  0
 16 21  1  0
 17 18  2  0
 18 19  1  0
  1 22  1  0
  1 23  1  0
  2 24  1  0
  2 25  1  0
  3 26  1  0
  3 27  1  0
  3 28  1  0
  4 29  1  0
  5 30  1  0
  6 31  1  0
  6 32  1  0
  7 33  1  0
  8 34  1  0
  9 35  1  0
  9 36  1  0
 10 37  1  0
 10 38  1  0
 11 39  1  0
 11 40  1  0
 12 41  1  0
 12 42  1  0
 13 43  1  0
 14 44  1  0
 19 45  1  0
M  END
