
     RDKit          3D

 45 48  0  0  0  0  0  0  0  0999 V2000
   -0.7955   -2.4287    1.2725 C   0  0  0  0  0  0  0  0  0  0  0  0
   -1.6287   -2.0307   -1.5986 C   0  0  0  0  0  0  0  0  0  0  0  0
    5.0697    0.6597    0.8568 C   0  0  0  0  0  0  0  0  0  0  0  0
    4.6215    0.1346   -0.4773 C   0  0  0  0  0  0  0  0  0  0  0  0
   -2.7668    1.6587    1.5041 C   0  0  0  0  0  0  0  0  0  0  0  0
   -3.9499    1.9041    0.8109 C   0  0  0  0  0  0  0  0  0  0  0  0
   -0.0796   -0.0445   -1.7828 C   0  0  0  0  0  0  0  0  0  0  0  0
    1.3155    0.2676   -1.2229 C   0  0  0  0  0  0  0  0  0  0  0  0
   -0.5502    0.5381    1.8136 C   0  0  0  0  0  0  0  0  0  0  0  0
   -3.2331    0.3692   -0.9142 C   0  0  0  0  0  0  0  0  0  0  0  0
    2.5266    1.1827    0.7015 C   0  0  0  0  0  0  0  0  0  0  0  0
   -0.0857   -1.4488    0.3235 C   0  0  0  0  0  0  0  0  0  0  0  0
    3.6487    0.1847    0.6758 C   0  0  0  0  0  0  0  0  0  0  0  0
   -1.8027    0.7696    0.9953 C   0  0  0  0  0  0  0  0  0  0  0  0
   -4.1703    1.2585   -0.3963 C   0  0  0  0  0  0  0  0  0  0  0  0
   -2.0380    0.0927   -0.2235 C   0  0  0  0  0  0  0  0  0  0  0  0
    0.5468   -0.2545    1.0742 C   0  0  0  0  0  0  0  0  0  0  0  0
   -0.9822   -0.8689   -0.8101 C   0  0  0  0  0  0  0  0  0  0  0  0
    1.2629    0.6727    0.1740 N   0  0  0  0  0  0  0  0  0  0  0  0
   -5.3076    1.4740   -1.1188 O   0  0  0  0  0  0  0  0  0  0  0  0
   -1.7263   -2.0278    1.6832 H   0  0  0  0  0  0  0  0  0  0  0  0
   -0.1414   -2.6907    2.1113 H   0  0  0  0  0  0  0  0  0  0  0  0
   -1.0397   -3.3616    0.7539 H   0  0  0  0  0  0  0  0  0  0  0  0
   -2.0853   -1.6883   -2.5341 H   0  0  0  0  0  0  0  0  0  0  0  0
   -0.8780   -2.7812   -1.8729 H   0  0  0  0  0  0  0  0  0  0  0  0
   -2.4108   -2.5325   -1.0180 H   0  0  0  0  0  0  0  0  0  0  0  0
    5.7390    0.0431    1.4463 H   0  0  0  0  0  0  0  0  0  0  0  0
    5.2567    1.7240    0.9449 H   0  0  0  0  0  0  0  0  0  0  0  0
    4.5041    0.8446   -1.2881 H   0  0  0  0  0  0  0  0  0  0  0  0
    4.9825   -0.8384   -0.7902 H   0  0  0  0  0  0  0  0  0  0  0  0
   -2.5903    2.1683    2.4489 H   0  0  0  0  0  0  0  0  0  0  0  0
   -4.6746    2.5978    1.2232 H   0  0  0  0  0  0  0  0  0  0  0  0
   -0.5668    0.8982   -2.0661 H   0  0  0  0  0  0  0  0  0  0  0  0
    0.0680   -0.5923   -2.7230 H   0  0  0  0  0  0  0  0  0  0  0  0
    1.9595   -0.6105   -1.3562 H   0  0  0  0  0  0  0  0  0  0  0  0
    1.7518    1.0675   -1.8342 H   0  0  0  0  0  0  0  0  0  0  0  0
   -0.8394   -0.0132    2.7180 H   0  0  0  0  0  0  0  0  0  0  0  0
   -0.1518    1.5026    2.1554 H   0  0  0  0  0  0  0  0  0  0  0  0
   -3.4496   -0.0929   -1.8726 H   0  0  0  0  0  0  0  0  0  0  0  0
    2.3830    1.5266    1.7336 H   0  0  0  0  0  0  0  0  0  0  0  0
    2.8062    2.0815    0.1366 H   0  0  0  0  0  0  0  0  0  0  0  0
    0.7254   -2.0365   -0.1312 H   0  0  0  0  0  0  0  0  0  0  0  0
    3.3911   -0.7488    1.1619 H   0  0  0  0  0  0  0  0  0  0  0  0
    1.2371   -0.6545    1.8273 H   0  0  0  0  0  0  0  0  0  0  0  0
   -5.8518    2.1241   -0.6458 H   0  0  0  0  0  0  0  0  0  0  0  0
  1 12  1  0
  2 18  1  0
  3  4  1  0
  3 13  1  0
  4 13  1  0
  5  6  2  0
  5 14  1  0
  6 15  1  0
  7  8  1  0
  7 18  1  0
  8 19  1  0
  9 14  1  0
  9 17  1  0
 10 15  2  0
 10 16  1  0
 11 13  1  0
 11 19  1  0
 12 17  1  0
 12 18  1  0
 14 16  2  0
 15 20  1  0
 16 18  1  0
 17 19  1  0
  1 21  1  0
  1 22  1  0
  1 23  1  0
  2 24  1  0
  2 25  1  0
  2 26  1  0
  3 27  1  0
  3 28  1  0
  4 29  1  0
  4 30  1  0
  5 31  1  0
  6 32  1  0
  7 33  1  0
  7 34  1  0
  8 35  1  0
  8 36  1  0
  9 37  1  0
  9 38  1  0
 10 39  1  0
 11 40  1  0
 11 41  1  0
 12 42  1  0
 13 43  1  0
 17 44  1  0
 20 45  1  0
M  END
