
     RDKit          3D

 46 48  0  0  0  0  0  0  0  0999 V2000
   -0.8702   -1.8818    1.4673 C   0  0  0  0  0  0  0  0  0  0  0  0
    0.2522   -2.6938   -0.6070 C   0  0  0  0  0  0  0  0  0  0  0  0
    5.7062   -0.6768    0.0300 C   0  0  0  0  0  0  0  0  0  0  0  0
   -4.2113    0.6447    0.8568 C   0  0  0  0  0  0  0  0  0  0  0  0
    3.5407   -0.0800    1.1635 C   0  0  0  0  0  0  0  0  0  0  0  0
    3.5731   -0.2557   -1.2352 C   0  0  0  0  0  0  0  0  0  0  0  0
    2.1824    0.2538    1.1242 C   0  0  0  0  0  0  0  0  0  0  0  0
    2.2161    0.0764   -1.2729 C   0  0  0  0  0  0  0  0  0  0  0  0
   -2.3262    2.5573   -0.5220 C   0  0  0  0  0  0  0  0  0  0  0  0
   -2.5545    1.4383   -1.5413 C   0  0  0  0  0  0  0  0  0  0  0  0
   -0.5766    1.4828    0.9996 C   0  0  0  0  0  0  0  0  0  0  0  0
   -0.8941   -1.8308   -0.0609 C   0  0  0  0  0  0  0  0  0  0  0  0
    4.2435   -0.3510   -0.0138 C   0  0  0  0  0  0  0  0  0  0  0  0
    1.4935    0.3270   -0.0927 C   0  0  0  0  0  0  0  0  0  0  0  0
   -2.0688    1.8232    0.7972 C   0  0  0  0  0  0  0  0  0  0  0  0
    0.0238    0.7037   -0.1991 C   0  0  0  0  0  0  0  0  0  0  0  0
   -2.4200    0.1382   -0.7311 C   0  0  0  0  0  0  0  0  0  0  0  0
   -0.9483   -0.4095   -0.7266 C   0  0  0  0  0  0  0  0  0  0  0  0
   -2.7710    0.5411    0.6400 N   0  0  0  0  0  0  0  0  0  0  0  0
    0.0333   -1.4308    1.8815 H   0  0  0  0  0  0  0  0  0  0  0  0
   -0.8916   -2.9233    1.8097 H   0  0  0  0  0  0  0  0  0  0  0  0
   -1.7381   -1.3928    1.9131 H   0  0  0  0  0  0  0  0  0  0  0  0
    0.0894   -3.7455   -0.3438 H   0  0  0  0  0  0  0  0  0  0  0  0
    0.3090   -2.6385   -1.6988 H   0  0  0  0  0  0  0  0  0  0  0  0
    1.2210   -2.4110   -0.1899 H   0  0  0  0  0  0  0  0  0  0  0  0
    5.9864   -1.3292   -0.8037 H   0  0  0  0  0  0  0  0  0  0  0  0
    5.9613   -1.2050    0.9548 H   0  0  0  0  0  0  0  0  0  0  0  0
    6.2965    0.2430   -0.0266 H   0  0  0  0  0  0  0  0  0  0  0  0
   -4.6810   -0.3364    0.7258 H   0  0  0  0  0  0  0  0  0  0  0  0
   -4.7125    1.3514    0.1876 H   0  0  0  0  0  0  0  0  0  0  0  0
   -4.4139    0.9535    1.8882 H   0  0  0  0  0  0  0  0  0  0  0  0
    4.0450   -0.1276    2.1261 H   0  0  0  0  0  0  0  0  0  0  0  0
    4.1006   -0.4404   -2.1679 H   0  0  0  0  0  0  0  0  0  0  0  0
    1.6798    0.4490    2.0672 H   0  0  0  0  0  0  0  0  0  0  0  0
    1.7213    0.1396   -2.2399 H   0  0  0  0  0  0  0  0  0  0  0  0
   -3.2288    3.1759   -0.4512 H   0  0  0  0  0  0  0  0  0  0  0  0
   -1.5009    3.2158   -0.8113 H   0  0  0  0  0  0  0  0  0  0  0  0
   -1.8512    1.4946   -2.3783 H   0  0  0  0  0  0  0  0  0  0  0  0
   -3.5644    1.5282   -1.9593 H   0  0  0  0  0  0  0  0  0  0  0  0
   -0.4766    0.9097    1.9286 H   0  0  0  0  0  0  0  0  0  0  0  0
   -0.0118    2.4124    1.1484 H   0  0  0  0  0  0  0  0  0  0  0  0
   -1.8098   -2.3533   -0.3723 H   0  0  0  0  0  0  0  0  0  0  0  0
   -2.4209    2.3977    1.6614 H   0  0  0  0  0  0  0  0  0  0  0  0
    0.0509    1.4594   -1.0001 H   0  0  0  0  0  0  0  0  0  0  0  0
   -3.0887   -0.6345   -1.1292 H   0  0  0  0  0  0  0  0  0  0  0  0
   -0.6945   -0.5688   -1.7855 H   0  0  0  0  0  0  0  0  0  0  0  0
  1 12  1  0
  2 12  1  0
  3 13  1  0
  4 19  1  0
  5  7  2  0
  5 13  1  0
  6  8  1  0
  6 13  2  0
  7 14  1  0
  8 14  2  0
  9 10  1  0
  9 15  1  0
 10 17  1  0
 11 15  1  0
 11 16  1  0
 12 18  1  0
 14 16  1  0
 15 19  1  0
 16 18  1  0
 17 18  1  0
 17 19  1  0
  1 20  1  0
  1 21  1  0
  1 22  1  0
  2 23  1  0
  2 24  1  0
  2 25  1  0
  3 26  1  0
  3 27  1  0
  3 28  1  0
  4 29  1  0
  4 30  1  0
  4 31  1  0
  5 32  1  0
  6 33  1  0
  7 34  1  0
  8 35  1  0
  9 36  1  0
  9 37  1  0
 10 38  1  0
 10 39  1  0
 11 40  1  0
 11 41  1  0
 12 42  1  0
 15 43  1  0
 16 44  1  0
 17 45  1  0
 18 46  1  0
M  END
