
     RDKit          3D

 47 49  0  0  0  0  0  0  0  0999 V2000
   -0.7564    2.7109   -2.4197 C   0  0  0  0  0  0  0  0  0  0  0  0
   -0.4891   -3.7583   -0.4032 C   0  0  0  0  0  0  0  0  0  0  0  0
    3.5178    1.0738    0.2790 C   0  0  0  0  0  0  0  0  0  0  0  0
   -2.9258    1.7370    1.9959 C   0  0  0  0  0  0  0  0  0  0  0  0
   -3.0566    2.7702    1.0833 C   0  0  0  0  0  0  0  0  0  0  0  0
   -0.0373   -3.1897    0.9317 C   0  0  0  0  0  0  0  0  0  0  0  0
   -0.3425   -2.7337   -1.5153 C   0  0  0  0  0  0  0  0  0  0  0  0
    2.9025    0.3968    1.5012 C   0  0  0  0  0  0  0  0  0  0  0  0
    2.5401    1.1531   -0.8868 C   0  0  0  0  0  0  0  0  0  0  0  0
   -2.1191    0.6374    1.6923 C   0  0  0  0  0  0  0  0  0  0  0  0
   -2.3701    2.7085   -0.1264 C   0  0  0  0  0  0  0  0  0  0  0  0
   -0.7636   -1.8777    1.2425 C   0  0  0  0  0  0  0  0  0  0  0  0
   -1.0111   -1.3983   -1.1681 C   0  0  0  0  0  0  0  0  0  0  0  0
    1.3756    0.3435    1.4267 C   0  0  0  0  0  0  0  0  0  0  0  0
    1.6626   -0.0979   -0.9777 C   0  0  0  0  0  0  0  0  0  0  0  0
   -1.4178    0.5272    0.4662 C   0  0  0  0  0  0  0  0  0  0  0  0
   -1.5455    1.6130   -0.4399 C   0  0  0  0  0  0  0  0  0  0  0  0
   -0.5256   -0.7332    0.1760 C   0  0  0  0  0  0  0  0  0  0  0  0
    0.9326   -0.4139    0.2507 N   0  0  0  0  0  0  0  0  0  0  0  0
   -0.8503    1.5406   -1.6168 O   0  0  0  0  0  0  0  0  0  0  0  0
   -1.7240    2.9529   -2.8724 H   0  0  0  0  0  0  0  0  0  0  0  0
   -0.3576    3.5582   -1.8500 H   0  0  0  0  0  0  0  0  0  0  0  0
   -0.0550    2.5012   -3.2330 H   0  0  0  0  0  0  0  0  0  0  0  0
   -1.5387   -4.0688   -0.3306 H   0  0  0  0  0  0  0  0  0  0  0  0
    0.0917   -4.6559   -0.6428 H   0  0  0  0  0  0  0  0  0  0  0  0
    4.4180    0.5214   -0.0210 H   0  0  0  0  0  0  0  0  0  0  0  0
    3.8525    2.0870    0.5362 H   0  0  0  0  0  0  0  0  0  0  0  0
   -3.4504    1.7785    2.9470 H   0  0  0  0  0  0  0  0  0  0  0  0
   -3.6881    3.6246    1.3094 H   0  0  0  0  0  0  0  0  0  0  0  0
    1.0480   -3.0365    0.9283 H   0  0  0  0  0  0  0  0  0  0  0  0
   -0.2486   -3.9175    1.7236 H   0  0  0  0  0  0  0  0  0  0  0  0
   -0.7907   -3.1325   -2.4332 H   0  0  0  0  0  0  0  0  0  0  0  0
    0.7193   -2.5827   -1.7334 H   0  0  0  0  0  0  0  0  0  0  0  0
    3.2156    0.9231    2.4108 H   0  0  0  0  0  0  0  0  0  0  0  0
    3.2967   -0.6244    1.5872 H   0  0  0  0  0  0  0  0  0  0  0  0
    3.0943    1.2925   -1.8222 H   0  0  0  0  0  0  0  0  0  0  0  0
    1.9032    2.0390   -0.7701 H   0  0  0  0  0  0  0  0  0  0  0  0
   -2.0547   -0.1331    2.4554 H   0  0  0  0  0  0  0  0  0  0  0  0
   -2.5035    3.5368   -0.8152 H   0  0  0  0  0  0  0  0  0  0  0  0
   -0.4678   -1.5697    2.2511 H   0  0  0  0  0  0  0  0  0  0  0  0
   -1.8386   -2.1018    1.3032 H   0  0  0  0  0  0  0  0  0  0  0  0
   -2.0955   -1.5735   -1.0965 H   0  0  0  0  0  0  0  0  0  0  0  0
   -0.8983   -0.7422   -2.0344 H   0  0  0  0  0  0  0  0  0  0  0  0
    1.0245   -0.1170    2.3548 H   0  0  0  0  0  0  0  0  0  0  0  0
    0.9848    1.3687    1.4100 H   0  0  0  0  0  0  0  0  0  0  0  0
    2.3165   -0.9521   -1.1976 H   0  0  0  0  0  0  0  0  0  0  0  0
    1.0257    0.0143   -1.8564 H   0  0  0  0  0  0  0  0  0  0  0  0
  1 20  1  0
  2  6  1  0
  2  7  1  0
  3  8  1  0
  3  9  1  0
  4  5  2  0
  4 10  1  0
  5 11  1  0
  6 12  1  0
  7 13  1  0
  8 14  1  0
  9 15  1  0
 10 16  2  0
 11 17  2  0
 12 18  1  0
 13 18  1  0
 14 19  1  0
 15 19  1  0
 16 17  1  0
 16 18  1  0
 17 20  1  0
 18 19  1  0
  1 21  1  0
  1 22  1  0
  1 23  1  0
  2 24  1  0
  2 25  1  0
  3 26  1  0
  3 27  1  0
  4 28  1  0
  5 29  1  0
  6 30  1  0
  6 31  1  0
  7 32  1  0
  7 33  1  0
  8 34  1  0
  8 35  1  0
  9 36  1  0
  9 37  1  0
 10 38  1  0
 11 39  1  0
 12 40  1  0
 12 41  1  0
 13 42  1  0
 13 43  1  0
 14 44  1  0
 14 45  1  0
 15 46  1  0
 15 47  1  0
M  END
