
     RDKit          3D

 42 45  0  0  0  0  0  0  0  0999 V2000
    6.2869    0.1936    1.2158 C   0  0  0  0  0  0  0  0  0  0  0  0
    4.1808    1.4602    0.9618 C   0  0  0  0  0  0  0  0  0  0  0  0
   -5.5042   -0.5676    1.4988 C   0  0  0  0  0  0  0  0  0  0  0  0
   -5.5110    0.7272    2.0148 C   0  0  0  0  0  0  0  0  0  0  0  0
   -4.3486   -1.0743    0.9039 C   0  0  0  0  0  0  0  0  0  0  0  0
   -4.3586    1.5137    1.9485 C   0  0  0  0  0  0  0  0  0  0  0  0
   -0.4816    1.5324   -3.0742 C   0  0  0  0  0  0  0  0  0  0  0  0
    0.4228    0.9034   -2.2179 C   0  0  0  0  0  0  0  0  0  0  0  0
   -2.3140    0.4563   -1.9212 C   0  0  0  0  0  0  0  0  0  0  0  0
   -0.4226   -2.6717    0.1022 C   0  0  0  0  0  0  0  0  0  0  0  0
   -1.8436    1.2938   -2.9319 C   0  0  0  0  0  0  0  0  0  0  0  0
   -3.1965   -0.2791    0.8132 C   0  0  0  0  0  0  0  0  0  0  0  0
   -1.4165   -0.1669   -1.0345 C   0  0  0  0  0  0  0  0  0  0  0  0
   -3.1954    1.0130    1.3550 C   0  0  0  0  0  0  0  0  0  0  0  0
   -0.0352    0.0250   -1.2175 C   0  0  0  0  0  0  0  0  0  0  0  0
    0.7955   -1.8447    0.2236 C   0  0  0  0  0  0  0  0  0  0  0  0
   -2.0023   -0.8819    0.1476 C   0  0  0  0  0  0  0  0  0  0  0  0
    2.7717   -1.1074    0.4927 C   0  0  0  0  0  0  0  0  0  0  0  0
    4.1936   -1.0706    0.9309 C   0  0  0  0  0  0  0  0  0  0  0  0
   -2.9603    2.0562   -3.9947 Cl  0  0  0  0  0  0  0  0  0  0  0  0
   -1.7940    2.0227    1.3682 Cl  0  0  0  0  0  0  0  0  0  0  0  0
   -1.5780   -1.9869    0.6555 N   0  0  0  0  0  0  0  0  0  0  0  0
    1.9246   -2.1455    0.8277 N   0  0  0  0  0  0  0  0  0  0  0  0
    2.2042   -0.2091   -0.3374 N   0  0  0  0  0  0  0  0  0  0  0  0
    4.8498    0.1706    1.0176 N   0  0  0  0  0  0  0  0  0  0  0  0
    0.9281   -0.6500   -0.4330 N   0  0  0  0  0  0  0  0  0  0  0  0
    4.7912   -2.1160    1.1997 O   0  0  0  0  0  0  0  0  0  0  0  0
    6.7353    0.8565    0.4697 H   0  0  0  0  0  0  0  0  0  0  0  0
    6.7362   -0.7976    1.1155 H   0  0  0  0  0  0  0  0  0  0  0  0
    6.4959    0.5786    2.2183 H   0  0  0  0  0  0  0  0  0  0  0  0
    3.1661    1.3995    1.3617 H   0  0  0  0  0  0  0  0  0  0  0  0
    4.7334    2.1845    1.5687 H   0  0  0  0  0  0  0  0  0  0  0  0
    4.1631    1.8029   -0.0764 H   0  0  0  0  0  0  0  0  0  0  0  0
   -6.3964   -1.1862    1.5671 H   0  0  0  0  0  0  0  0  0  0  0  0
   -6.4103    1.1204    2.4840 H   0  0  0  0  0  0  0  0  0  0  0  0
   -4.3445   -2.0905    0.5147 H   0  0  0  0  0  0  0  0  0  0  0  0
   -4.3717    2.5142    2.3750 H   0  0  0  0  0  0  0  0  0  0  0  0
   -0.1144    2.1962   -3.8534 H   0  0  0  0  0  0  0  0  0  0  0  0
    1.4879    1.0839   -2.3619 H   0  0  0  0  0  0  0  0  0  0  0  0
   -3.3874    0.3104   -1.8214 H   0  0  0  0  0  0  0  0  0  0  0  0
   -0.6012   -2.9645   -0.9396 H   0  0  0  0  0  0  0  0  0  0  0  0
   -0.2790   -3.6045    0.6592 H   0  0  0  0  0  0  0  0  0  0  0  0
  1 25  1  0
  2 25  1  0
  3  4  2  0
  3  5  1  0
  4  6  1  0
  5 12  2  0
  6 14  2  0
  7  8  2  0
  7 11  1  0
  8 15  1  0
  9 11  2  0
  9 13  1  0
 10 16  1  0
 10 22  1  0
 11 20  1  0
 12 14  1  0
 12 17  1  0
 13 15  2  0
 13 17  1  0
 14 21  1  0
 15 26  1  0
 16 23  2  0
 16 26  1  0
 17 22  2  0
 18 19  1  0
 18 23  1  0
 18 24  2  0
 19 25  1  0
 19 27  2  0
 24 26  1  0
  1 28  1  0
  1 29  1  0
  1 30  1  0
  2 31  1  0
  2 32  1  0
  2 33  1  0
  3 34  1  0
  4 35  1  0
  5 36  1  0
  6 37  1  0
  7 38  1  0
  8 39  1  0
  9 40  1  0
 10 41  1  0
 10 42  1  0
M  END
