
     RDKit          3D

 41 43  0  0  0  0  0  0  0  0999 V2000
   -2.0480   -1.4918    2.9353 C   0  0  0  0  0  0  0  0  0  0  0  0
   -1.6493   -2.1577    1.6191 C   0  0  0  0  0  0  0  0  0  0  0  0
    5.6299    1.1034   -1.5977 C   0  0  0  0  0  0  0  0  0  0  0  0
   -4.2096    1.8528   -0.2289 C   0  0  0  0  0  0  0  0  0  0  0  0
    5.0460   -0.1139   -1.2472 C   0  0  0  0  0  0  0  0  0  0  0  0
    4.9195    2.2923   -1.4373 C   0  0  0  0  0  0  0  0  0  0  0  0
   -3.0756    2.1611    0.5152 C   0  0  0  0  0  0  0  0  0  0  0  0
   -4.3771    0.5664   -0.7297 C   0  0  0  0  0  0  0  0  0  0  0  0
    3.7447   -0.1473   -0.7407 C   0  0  0  0  0  0  0  0  0  0  0  0
    3.6192    2.2652   -0.9311 C   0  0  0  0  0  0  0  0  0  0  0  0
   -2.1017    1.1874    0.7512 C   0  0  0  0  0  0  0  0  0  0  0  0
   -3.4042   -0.4087   -0.4975 C   0  0  0  0  0  0  0  0  0  0  0  0
    3.0213    1.0445   -0.5934 C   0  0  0  0  0  0  0  0  0  0  0  0
   -2.2349   -0.1122    0.2292 C   0  0  0  0  0  0  0  0  0  0  0  0
    1.6354    1.0553   -0.0407 C   0  0  0  0  0  0  0  0  0  0  0  0
   -0.9135   -1.9913   -0.7911 C   0  0  0  0  0  0  0  0  0  0  0  0
    0.2162   -0.6194    0.8071 C   0  0  0  0  0  0  0  0  0  0  0  0
    0.5486   -0.4393   -1.5676 C   0  0  0  0  0  0  0  0  0  0  0  0
   -1.1752   -1.2032    0.4853 C   0  0  0  0  0  0  0  0  0  0  0  0
   -0.1086   -1.6385   -1.7287 N   0  0  0  0  0  0  0  0  0  0  0  0
    0.8579   -0.0574   -0.2743 N   0  0  0  0  0  0  0  0  0  0  0  0
    1.2055    2.0725    0.5016 O   0  0  0  0  0  0  0  0  0  0  0  0
   -1.5843   -3.1342   -0.9702 O   0  0  0  0  0  0  0  0  0  0  0  0
    0.7717   -0.7700    1.8967 O   0  0  0  0  0  0  0  0  0  0  0  0
    0.8399    0.2385   -2.5474 O   0  0  0  0  0  0  0  0  0  0  0  0
   -1.2538   -0.8603    3.3404 H   0  0  0  0  0  0  0  0  0  0  0  0
   -2.9487   -0.8817    2.8187 H   0  0  0  0  0  0  0  0  0  0  0  0
   -2.2733   -2.2603    3.6825 H   0  0  0  0  0  0  0  0  0  0  0  0
   -0.8596   -2.8918    1.8292 H   0  0  0  0  0  0  0  0  0  0  0  0
   -2.5172   -2.7409    1.2837 H   0  0  0  0  0  0  0  0  0  0  0  0
    6.6432    1.1266   -1.9920 H   0  0  0  0  0  0  0  0  0  0  0  0
   -4.9654    2.6125   -0.4096 H   0  0  0  0  0  0  0  0  0  0  0  0
    5.6090   -1.0369   -1.3640 H   0  0  0  0  0  0  0  0  0  0  0  0
    5.3773    3.2413   -1.7056 H   0  0  0  0  0  0  0  0  0  0  0  0
   -2.9464    3.1625    0.9198 H   0  0  0  0  0  0  0  0  0  0  0  0
   -5.2694    0.3188   -1.2996 H   0  0  0  0  0  0  0  0  0  0  0  0
    3.3242   -1.1063   -0.4518 H   0  0  0  0  0  0  0  0  0  0  0  0
    3.0724    3.1980   -0.8071 H   0  0  0  0  0  0  0  0  0  0  0  0
   -1.2474    1.4763    1.3625 H   0  0  0  0  0  0  0  0  0  0  0  0
   -3.5841   -1.4079   -0.8903 H   0  0  0  0  0  0  0  0  0  0  0  0
   -1.3346   -3.5047   -1.8360 H   0  0  0  0  0  0  0  0  0  0  0  0
  1  2  1  0
  2 19  1  0
  3  5  2  0
  3  6  1  0
  4  7  2  0
  4  8  1  0
  5  9  1  0
  6 10  2  0
  7 11  1  0
  8 12  2  0
  9 13  2  0
 10 13  1  0
 11 14  2  0
 12 14  1  0
 13 15  1  0
 14 19  1  0
 15 21  1  0
 15 22  2  0
 16 19  1  0
 16 20  2  0
 16 23  1  0
 17 19  1  0
 17 21  1  0
 17 24  2  0
 18 20  1  0
 18 21  1  0
 18 25  2  0
  1 26  1  0
  1 27  1  0
  1 28  1  0
  2 29  1  0
  2 30  1  0
  3 31  1  0
  4 32  1  0
  5 33  1  0
  6 34  1  0
  7 35  1  0
  8 36  1  0
  9 37  1  0
 10 38  1  0
 11 39  1  0
 12 40  1  0
 23 41  1  0
M  END
