
     RDKit          3D

 43 46  0  0  0  0  0  0  0  0999 V2000
   -6.7460    1.0745   -0.9428 C   0  0  0  0  0  0  0  0  0  0  0  0
   -1.2831    2.3439    2.1070 C   0  0  0  0  0  0  0  0  0  0  0  0
   -6.3074   -0.3722   -0.8145 C   0  0  0  0  0  0  0  0  0  0  0  0
    7.3484   -0.1814    0.6800 C   0  0  0  0  0  0  0  0  0  0  0  0
    6.0362    0.3147    0.8773 C   0  0  0  0  0  0  0  0  0  0  0  0
    3.2007   -1.2655   -1.1666 C   0  0  0  0  0  0  0  0  0  0  0  0
    1.8241   -1.2612   -1.4147 C   0  0  0  0  0  0  0  0  0  0  0  0
    7.2354   -1.2042   -0.2297 C   0  0  0  0  0  0  0  0  0  0  0  0
    2.9003    0.3957    0.5376 C   0  0  0  0  0  0  0  0  0  0  0  0
   -1.1905   -0.0140    1.3807 C   0  0  0  0  0  0  0  0  0  0  0  0
   -1.0262   -0.8549   -2.1242 C   0  0  0  0  0  0  0  0  0  0  0  0
    3.7605   -0.4417   -0.1853 C   0  0  0  0  0  0  0  0  0  0  0  0
    1.5059    0.4128    0.3146 C   0  0  0  0  0  0  0  0  0  0  0  0
    0.9643   -0.4366   -0.6687 C   0  0  0  0  0  0  0  0  0  0  0  0
   -1.4529   -0.2885   -0.0421 C   0  0  0  0  0  0  0  0  0  0  0  0
    5.1985   -0.4362    0.0734 C   0  0  0  0  0  0  0  0  0  0  0  0
   -2.6325   -0.4447   -0.7569 C   0  0  0  0  0  0  0  0  0  0  0  0
    0.7639    1.4811    1.0587 C   0  0  0  0  0  0  0  0  0  0  0  0
   -4.0007   -0.2817   -0.2543 C   0  0  0  0  0  0  0  0  0  0  0  0
   -2.3364   -0.8166   -2.0557 N   0  0  0  0  0  0  0  0  0  0  0  0
   -0.5493    1.2759    1.4477 N   0  0  0  0  0  0  0  0  0  0  0  0
   -0.4269   -0.5017   -0.9375 N   0  0  0  0  0  0  0  0  0  0  0  0
    1.3651    2.5270    1.3023 O   0  0  0  0  0  0  0  0  0  0  0  0
   -4.2620    0.0293    0.9033 O   0  0  0  0  0  0  0  0  0  0  0  0
   -4.9398   -0.5127   -1.2178 O   0  0  0  0  0  0  0  0  0  0  0  0
    5.9407   -1.3666   -0.6023 O   0  0  0  0  0  0  0  0  0  0  0  0
   -6.1637    1.7223   -0.2800 H   0  0  0  0  0  0  0  0  0  0  0  0
   -7.8054    1.1820   -0.6937 H   0  0  0  0  0  0  0  0  0  0  0  0
   -6.5846    1.4359   -1.9637 H   0  0  0  0  0  0  0  0  0  0  0  0
   -0.7701    3.3051    2.0193 H   0  0  0  0  0  0  0  0  0  0  0  0
   -1.3893    2.0930    3.1666 H   0  0  0  0  0  0  0  0  0  0  0  0
   -2.2727    2.4315    1.6487 H   0  0  0  0  0  0  0  0  0  0  0  0
   -6.9050   -0.9979   -1.4856 H   0  0  0  0  0  0  0  0  0  0  0  0
   -6.4650   -0.7509    0.2019 H   0  0  0  0  0  0  0  0  0  0  0  0
    8.2618    0.1651    1.1424 H   0  0  0  0  0  0  0  0  0  0  0  0
    5.7415    1.1272    1.5266 H   0  0  0  0  0  0  0  0  0  0  0  0
    3.8361   -1.9274   -1.7538 H   0  0  0  0  0  0  0  0  0  0  0  0
    1.4527   -1.9469   -2.1734 H   0  0  0  0  0  0  0  0  0  0  0  0
    7.9428   -1.8790   -0.6911 H   0  0  0  0  0  0  0  0  0  0  0  0
    3.3153    1.0724    1.2845 H   0  0  0  0  0  0  0  0  0  0  0  0
   -0.5220   -0.7712    1.8082 H   0  0  0  0  0  0  0  0  0  0  0  0
   -2.0954   -0.0140    1.9931 H   0  0  0  0  0  0  0  0  0  0  0  0
   -0.4675   -1.0933   -3.0196 H   0  0  0  0  0  0  0  0  0  0  0  0
  1  3  1  0
  2 21  1  0
  3 25  1  0
  4  5  1  0
  4  8  2  0
  5 16  2  0
  6  7  2  0
  6 12  1  0
  7 14  1  0
  8 26  1  0
  9 12  2  0
  9 13  1  0
 10 15  1  0
 10 21  1  0
 11 20  2  0
 11 22  1  0
 12 16  1  0
 13 14  2  0
 13 18  1  0
 14 22  1  0
 15 17  2  0
 15 22  1  0
 16 26  1  0
 17 19  1  0
 17 20  1  0
 18 21  1  0
 18 23  2  0
 19 24  2  0
 19 25  1  0
  1 27  1  0
  1 28  1  0
  1 29  1  0
  2 30  1  0
  2 31  1  0
  2 32  1  0
  3 33  1  0
  3 34  1  0
  4 35  1  0
  5 36  1  0
  6 37  1  0
  7 38  1  0
  8 39  1  0
  9 40  1  0
 10 41  1  0
 10 42  1  0
 11 43  1  0
M  END
