
     RDKit          3D

 44 46  0  0  0  0  0  0  0  0999 V2000
   -3.5253   -3.8770   -1.6169 C   0  0  0  0  0  0  0  0  0  0  0  0
   -2.3586    2.0063    2.6639 C   0  0  0  0  0  0  0  0  0  0  0  0
    3.0943    0.7012    2.6594 C   0  0  0  0  0  0  0  0  0  0  0  0
    4.1064    1.6109    2.3594 C   0  0  0  0  0  0  0  0  0  0  0  0
    2.4271    0.0447    1.6360 C   0  0  0  0  0  0  0  0  0  0  0  0
   -1.6174   -0.1391   -1.9579 C   0  0  0  0  0  0  0  0  0  0  0  0
    5.4531    2.7699    0.4864 C   0  0  0  0  0  0  0  0  0  0  0  0
   -0.1737   -0.6621   -1.8983 C   0  0  0  0  0  0  0  0  0  0  0  0
    5.5115    2.7551   -0.8849 C   0  0  0  0  0  0  0  0  0  0  0  0
   -2.4615    0.3813    0.3585 C   0  0  0  0  0  0  0  0  0  0  0  0
   -3.8424   -2.0362    0.5033 C   0  0  0  0  0  0  0  0  0  0  0  0
    1.9646   -0.4898   -0.7765 C   0  0  0  0  0  0  0  0  0  0  0  0
    4.4586    1.8776    1.0145 C   0  0  0  0  0  0  0  0  0  0  0  0
   -2.4310   -0.5091   -0.7328 C   0  0  0  0  0  0  0  0  0  0  0  0
    2.7458    0.2641    0.2786 C   0  0  0  0  0  0  0  0  0  0  0  0
   -3.8711   -1.1361    1.5760 C   0  0  0  0  0  0  0  0  0  0  0  0
   -3.1120   -1.7365   -0.6483 C   0  0  0  0  0  0  0  0  0  0  0  0
   -3.1700    0.0757    1.5233 C   0  0  0  0  0  0  0  0  0  0  0  0
    3.7727    1.2032   -0.0047 C   0  0  0  0  0  0  0  0  0  0  0  0
   -4.8828   -1.6298    3.1111 Br  0  0  0  0  0  0  0  0  0  0  0  0
    0.6251    0.0787   -0.9152 N   0  0  0  0  0  0  0  0  0  0  0  0
   -3.0060   -2.5578   -1.7403 O   0  0  0  0  0  0  0  0  0  0  0  0
   -3.2353    0.8864    2.6252 O   0  0  0  0  0  0  0  0  0  0  0  0
    4.3624    1.6953   -1.5576 S   0  0  0  0  0  0  0  0  0  0  0  0
   -4.6178   -3.8611   -1.5447 H   0  0  0  0  0  0  0  0  0  0  0  0
   -3.0762   -4.4044   -0.7679 H   0  0  0  0  0  0  0  0  0  0  0  0
   -3.2583   -4.4265   -2.5257 H   0  0  0  0  0  0  0  0  0  0  0  0
   -1.3144    1.7006    2.5423 H   0  0  0  0  0  0  0  0  0  0  0  0
   -2.6442    2.7523    1.9153 H   0  0  0  0  0  0  0  0  0  0  0  0
   -2.4561    2.4713    3.6491 H   0  0  0  0  0  0  0  0  0  0  0  0
    2.8314    0.5019    3.6956 H   0  0  0  0  0  0  0  0  0  0  0  0
    4.6256    2.1205    3.1675 H   0  0  0  0  0  0  0  0  0  0  0  0
    1.6307   -0.6565    1.8875 H   0  0  0  0  0  0  0  0  0  0  0  0
   -2.1082   -0.5370   -2.8549 H   0  0  0  0  0  0  0  0  0  0  0  0
   -1.6257    0.9502   -2.0945 H   0  0  0  0  0  0  0  0  0  0  0  0
    6.0996    3.3865    1.0987 H   0  0  0  0  0  0  0  0  0  0  0  0
    0.2811   -0.5489   -2.8891 H   0  0  0  0  0  0  0  0  0  0  0  0
   -0.1776   -1.7306   -1.6537 H   0  0  0  0  0  0  0  0  0  0  0  0
    6.1737    3.3217   -1.5241 H   0  0  0  0  0  0  0  0  0  0  0  0
   -1.9056    1.3098    0.2693 H   0  0  0  0  0  0  0  0  0  0  0  0
   -4.3980   -2.9639    0.5915 H   0  0  0  0  0  0  0  0  0  0  0  0
    2.4893   -0.4742   -1.7376 H   0  0  0  0  0  0  0  0  0  0  0  0
    1.9035   -1.5416   -0.4692 H   0  0  0  0  0  0  0  0  0  0  0  0
    0.7127    1.0528   -1.2033 H   0  0  0  0  0  0  0  0  0  0  0  0
  1 22  1  0
  2 23  1  0
  3  4  2  0
  3  5  1  0
  4 13  1  0
  5 15  2  0
  6  8  1  0
  6 14  1  0
  7  9  2  0
  7 13  1  0
  8 21  1  0
  9 24  1  0
 10 14  2  0
 10 18  1  0
 11 16  1  0
 11 17  2  0
 12 15  1  0
 12 21  1  0
 13 19  2  0
 14 17  1  0
 15 19  1  0
 16 18  2  0
 16 20  1  0
 17 22  1  0
 18 23  1  0
 19 24  1  0
  1 25  1  0
  1 26  1  0
  1 27  1  0
  2 28  1  0
  2 29  1  0
  2 30  1  0
  3 31  1  0
  4 32  1  0
  5 33  1  0
  6 34  1  0
  6 35  1  0
  7 36  1  0
  8 37  1  0
  8 38  1  0
  9 39  1  0
 10 40  1  0
 11 41  1  0
 12 42  1  0
 12 43  1  0
 21 44  1  0
M  END
