
     RDKit          3D

 43 45  0  0  0  0  0  0  0  0999 V2000
    0.5365    0.6640    1.5645 C   0  0  0  0  0  0  0  0  0  0  0  0
   -4.8213    0.8600    2.3010 C   0  0  0  0  0  0  0  0  0  0  0  0
   -4.6748   -1.4742   -2.1665 C   0  0  0  0  0  0  0  0  0  0  0  0
   -5.6979   -0.8623   -1.4500 C   0  0  0  0  0  0  0  0  0  0  0  0
   -3.3901   -1.5248   -1.6303 C   0  0  0  0  0  0  0  0  0  0  0  0
   -5.4376   -0.2931   -0.2004 C   0  0  0  0  0  0  0  0  0  0  0  0
    3.5101    1.9110   -0.0069 C   0  0  0  0  0  0  0  0  0  0  0  0
    4.8812    1.8715    0.2730 C   0  0  0  0  0  0  0  0  0  0  0  0
    5.9477   -1.4138   -0.6978 C   0  0  0  0  0  0  0  0  0  0  0  0
    7.1047   -0.8298   -0.2353 C   0  0  0  0  0  0  0  0  0  0  0  0
    1.3513    0.8790   -0.8343 C   0  0  0  0  0  0  0  0  0  0  0  0
    3.5460   -0.3811   -0.8350 C   0  0  0  0  0  0  0  0  0  0  0  0
   -1.7018   -1.0395    0.1700 C   0  0  0  0  0  0  0  0  0  0  0  0
    0.4826    0.0636    0.1539 C   0  0  0  0  0  0  0  0  0  0  0  0
    2.8376    0.8046   -0.5518 C   0  0  0  0  0  0  0  0  0  0  0  0
    4.9242   -0.4393   -0.5604 C   0  0  0  0  0  0  0  0  0  0  0  0
   -3.1155   -0.9709   -0.3669 C   0  0  0  0  0  0  0  0  0  0  0  0
   -4.1501   -0.3362    0.3474 C   0  0  0  0  0  0  0  0  0  0  0  0
    5.5408    0.6815   -0.0186 C   0  0  0  0  0  0  0  0  0  0  0  0
   -0.8950    0.0584   -0.3659 N   0  0  0  0  0  0  0  0  0  0  0  0
   -3.8002    0.2098    1.5555 O   0  0  0  0  0  0  0  0  0  0  0  0
    6.8671    0.4421    0.1794 O   0  0  0  0  0  0  0  0  0  0  0  0
    1.5561    0.6431    1.9627 H   0  0  0  0  0  0  0  0  0  0  0  0
    0.1948    1.7051    1.5689 H   0  0  0  0  0  0  0  0  0  0  0  0
   -0.0869    0.1030    2.2675 H   0  0  0  0  0  0  0  0  0  0  0  0
   -4.3722    1.2333    3.2264 H   0  0  0  0  0  0  0  0  0  0  0  0
   -5.2214    1.7211    1.7555 H   0  0  0  0  0  0  0  0  0  0  0  0
   -5.6163    0.1594    2.5768 H   0  0  0  0  0  0  0  0  0  0  0  0
   -4.8738   -1.9067   -3.1434 H   0  0  0  0  0  0  0  0  0  0  0  0
   -6.7009   -0.8200   -1.8666 H   0  0  0  0  0  0  0  0  0  0  0  0
   -2.5905   -1.9915   -2.2020 H   0  0  0  0  0  0  0  0  0  0  0  0
   -6.2644    0.1809    0.3175 H   0  0  0  0  0  0  0  0  0  0  0  0
    2.9628    2.8272    0.2099 H   0  0  0  0  0  0  0  0  0  0  0  0
    5.4076    2.7190    0.6939 H   0  0  0  0  0  0  0  0  0  0  0  0
    5.8523   -2.4173   -1.0863 H   0  0  0  0  0  0  0  0  0  0  0  0
    8.1274   -1.1669   -0.1395 H   0  0  0  0  0  0  0  0  0  0  0  0
    1.0272    1.9286   -0.8447 H   0  0  0  0  0  0  0  0  0  0  0  0
    1.1937    0.5122   -1.8585 H   0  0  0  0  0  0  0  0  0  0  0  0
    3.0382   -1.2410   -1.2632 H   0  0  0  0  0  0  0  0  0  0  0  0
   -1.2641   -2.0023   -0.1237 H   0  0  0  0  0  0  0  0  0  0  0  0
   -1.7189   -1.0383    1.2649 H   0  0  0  0  0  0  0  0  0  0  0  0
    0.8643   -0.9648    0.1884 H   0  0  0  0  0  0  0  0  0  0  0  0
   -1.3604    0.9353   -0.1290 H   0  0  0  0  0  0  0  0  0  0  0  0
  1 14  1  0
  2 21  1  0
  3  4  2  0
  3  5  1  0
  4  6  1  0
  5 17  2  0
  6 18  2  0
  7  8  2  0
  7 15  1  0
  8 19  1  0
  9 10  2  0
  9 16  1  0
 10 22  1  0
 11 14  1  0
 11 15  1  0
 12 15  2  0
 12 16  1  0
 13 17  1  0
 13 20  1  0
 14 20  1  0
 16 19  2  0
 17 18  1  0
 18 21  1  0
 19 22  1  0
  1 23  1  0
  1 24  1  0
  1 25  1  0
  2 26  1  0
  2 27  1  0
  2 28  1  0
  3 29  1  0
  4 30  1  0
  5 31  1  0
  6 32  1  0
  7 33  1  0
  8 34  1  0
  9 35  1  0
 10 36  1  0
 11 37  1  0
 11 38  1  0
 12 39  1  0
 13 40  1  0
 13 41  1  0
 14 42  1  0
 20 43  1  0
M  END
