
     RDKit          3D

 43 45  0  0  0  0  0  0  0  0999 V2000
    5.3635   -0.8568   -1.0506 C   0  0  0  0  0  0  0  0  0  0  0  0
    4.2147   -1.3740   -0.5933 C   0  0  0  0  0  0  0  0  0  0  0  0
   -1.0257    4.7196    0.2335 C   0  0  0  0  0  0  0  0  0  0  0  0
   -0.5805    4.0496    1.3704 C   0  0  0  0  0  0  0  0  0  0  0  0
   -1.1347    4.0382   -0.9763 C   0  0  0  0  0  0  0  0  0  0  0  0
   -0.2386    2.6980    1.2973 C   0  0  0  0  0  0  0  0  0  0  0  0
   -0.7935    2.6863   -1.0527 C   0  0  0  0  0  0  0  0  0  0  0  0
    0.5082   -2.4206    0.4098 C   0  0  0  0  0  0  0  0  0  0  0  0
    2.9819   -0.5702   -0.2844 C   0  0  0  0  0  0  0  0  0  0  0  0
    1.2526   -2.2259   -0.9191 C   0  0  0  0  0  0  0  0  0  0  0  0
   -1.9712   -2.7348    0.5847 C   0  0  0  0  0  0  0  0  0  0  0  0
   -2.4712   -0.0101    0.2654 C   0  0  0  0  0  0  0  0  0  0  0  0
    0.8607    0.1721   -1.2463 C   0  0  0  0  0  0  0  0  0  0  0  0
   -0.3309    1.9975    0.0822 C   0  0  0  0  0  0  0  0  0  0  0  0
   -0.8914   -1.8468    0.4058 C   0  0  0  0  0  0  0  0  0  0  0  0
   -1.1342   -0.4601    0.2345 C   0  0  0  0  0  0  0  0  0  0  0  0
    0.0411    0.5098    0.0395 C   0  0  0  0  0  0  0  0  0  0  0  0
   -3.2717   -2.2598    0.5877 C   0  0  0  0  0  0  0  0  0  0  0  0
   -3.5180   -0.9034    0.4550 C   0  0  0  0  0  0  0  0  0  0  0  0
    1.8598   -0.9122   -1.1648 N   0  0  0  0  0  0  0  0  0  0  0  0
   -4.3021   -3.1476    0.6940 O   0  0  0  0  0  0  0  0  0  0  0  0
   -4.7926   -0.4218    0.5407 O   0  0  0  0  0  0  0  0  0  0  0  0
    5.4709    0.2045   -1.2512 H   0  0  0  0  0  0  0  0  0  0  0  0
    6.2194   -1.4944   -1.2482 H   0  0  0  0  0  0  0  0  0  0  0  0
    4.1679   -2.4438   -0.4103 H   0  0  0  0  0  0  0  0  0  0  0  0
   -1.2938    5.7711    0.2916 H   0  0  0  0  0  0  0  0  0  0  0  0
   -0.5028    4.5784    2.3168 H   0  0  0  0  0  0  0  0  0  0  0  0
   -1.4914    4.5580   -1.8618 H   0  0  0  0  0  0  0  0  0  0  0  0
    0.0970    2.1918    2.2001 H   0  0  0  0  0  0  0  0  0  0  0  0
   -0.9063    2.1746   -2.0059 H   0  0  0  0  0  0  0  0  0  0  0  0
    0.4515   -3.5016    0.5952 H   0  0  0  0  0  0  0  0  0  0  0  0
    1.0637   -2.0187    1.2638 H   0  0  0  0  0  0  0  0  0  0  0  0
    3.2322    0.4923   -0.4060 H   0  0  0  0  0  0  0  0  0  0  0  0
    2.7338   -0.6977    0.7745 H   0  0  0  0  0  0  0  0  0  0  0  0
    2.0349   -2.9916   -0.9829 H   0  0  0  0  0  0  0  0  0  0  0  0
    0.5778   -2.4595   -1.7540 H   0  0  0  0  0  0  0  0  0  0  0  0
   -1.8016   -3.8021    0.7033 H   0  0  0  0  0  0  0  0  0  0  0  0
   -2.7213    1.0424    0.1639 H   0  0  0  0  0  0  0  0  0  0  0  0
    1.4052    1.0656   -1.5817 H   0  0  0  0  0  0  0  0  0  0  0  0
    0.1725   -0.0550   -2.0728 H   0  0  0  0  0  0  0  0  0  0  0  0
    0.7008    0.3643    0.9057 H   0  0  0  0  0  0  0  0  0  0  0  0
   -5.0217   -2.7861    0.1442 H   0  0  0  0  0  0  0  0  0  0  0  0
   -5.2152   -0.9193    1.2647 H   0  0  0  0  0  0  0  0  0  0  0  0
  1  2  2  3
  2  9  1  0
  3  4  2  0
  3  5  1  0
  4  6  1  0
  5  7  2  0
  6 14  2  0
  7 14  1  0
  8 10  1  0
  8 15  1  0
  9 20  1  0
 10 20  1  0
 11 15  2  0
 11 18  1  0
 12 16  2  0
 12 19  1  0
 13 17  1  0
 13 20  1  0
 14 17  1  0
 15 16  1  0
 16 17  1  0
 18 19  2  0
 18 21  1  0
 19 22  1  0
  1 23  1  0
  1 24  1  0
  2 25  1  0
  3 26  1  0
  4 27  1  0
  5 28  1  0
  6 29  1  0
  7 30  1  0
  8 31  1  0
  8 32  1  0
  9 33  1  0
  9 34  1  0
 10 35  1  0
 10 36  1  0
 11 37  1  0
 12 38  1  0
 13 39  1  0
 13 40  1  0
 17 41  1  0
 21 42  1  0
 22 43  1  0
M  END
