
     RDKit          3D

 45 49  0  0  0  0  0  0  0  0999 V2000
    5.8138   -0.6250   -0.3286 C   0  0  0  0  0  0  0  0  0  0  0  0
   -4.1770   -1.6574   -0.1204 C   0  0  0  0  0  0  0  0  0  0  0  0
   -1.8323    2.9544    1.2109 C   0  0  0  0  0  0  0  0  0  0  0  0
    0.4541   -1.7162    1.5960 C   0  0  0  0  0  0  0  0  0  0  0  0
   -0.9905    3.9040    0.5705 C   0  0  0  0  0  0  0  0  0  0  0  0
    1.7336   -1.6978    1.1399 C   0  0  0  0  0  0  0  0  0  0  0  0
   -0.8489   -0.4381   -1.6305 C   0  0  0  0  0  0  0  0  0  0  0  0
   -2.2354   -1.1355   -1.4826 C   0  0  0  0  0  0  0  0  0  0  0  0
   -2.3206    0.4596    1.7420 C   0  0  0  0  0  0  0  0  0  0  0  0
    4.4645   -1.2320   -0.5639 C   0  0  0  0  0  0  0  0  0  0  0  0
   -1.6470    1.5878    1.0002 C   0  0  0  0  0  0  0  0  0  0  0  0
   -0.6566   -1.2591    0.6778 C   0  0  0  0  0  0  0  0  0  0  0  0
   -2.1372   -0.9315    1.0387 C   0  0  0  0  0  0  0  0  0  0  0  0
    0.0816    3.4970   -0.2320 C   0  0  0  0  0  0  0  0  0  0  0  0
    2.1555   -0.9313   -0.1359 C   0  0  0  0  0  0  0  0  0  0  0  0
   -0.6490    1.2433    0.1203 C   0  0  0  0  0  0  0  0  0  0  0  0
    0.2584    2.1520   -0.4235 C   0  0  0  0  0  0  0  0  0  0  0  0
    1.2394    0.2864   -0.1245 C   0  0  0  0  0  0  0  0  0  0  0  0
   -0.2257   -0.1348   -0.2512 C   0  0  0  0  0  0  0  0  0  0  0  0
   -2.9542   -0.8673   -0.2207 N   0  0  0  0  0  0  0  0  0  0  0  0
    4.2720   -2.2598   -1.1968 O   0  0  0  0  0  0  0  0  0  0  0  0
    0.9479    4.4138   -0.7337 O   0  0  0  0  0  0  0  0  0  0  0  0
    3.5072   -0.4769    0.0346 O   0  0  0  0  0  0  0  0  0  0  0  0
    1.3788    1.4825   -0.9388 O   0  0  0  0  0  0  0  0  0  0  0  0
    5.8427    0.3862   -0.7422 H   0  0  0  0  0  0  0  0  0  0  0  0
    6.5752   -1.2278   -0.8318 H   0  0  0  0  0  0  0  0  0  0  0  0
    6.0315   -0.6098    0.7422 H   0  0  0  0  0  0  0  0  0  0  0  0
   -4.8146   -1.4982   -0.9970 H   0  0  0  0  0  0  0  0  0  0  0  0
   -4.7637   -1.3534    0.7534 H   0  0  0  0  0  0  0  0  0  0  0  0
   -3.9627   -2.7287   -0.0385 H   0  0  0  0  0  0  0  0  0  0  0  0
   -2.6069    3.3051    1.8887 H   0  0  0  0  0  0  0  0  0  0  0  0
    0.2004   -2.2382    2.5142 H   0  0  0  0  0  0  0  0  0  0  0  0
   -1.1455    4.9645    0.7539 H   0  0  0  0  0  0  0  0  0  0  0  0
    2.5231   -2.1653    1.7228 H   0  0  0  0  0  0  0  0  0  0  0  0
   -0.1895   -1.1101   -2.1940 H   0  0  0  0  0  0  0  0  0  0  0  0
   -0.9706    0.4635   -2.2446 H   0  0  0  0  0  0  0  0  0  0  0  0
   -2.0907   -2.2180   -1.6034 H   0  0  0  0  0  0  0  0  0  0  0  0
   -2.8604   -0.8229   -2.3286 H   0  0  0  0  0  0  0  0  0  0  0  0
   -1.8800    0.4026    2.7451 H   0  0  0  0  0  0  0  0  0  0  0  0
   -3.3878    0.6828    1.8622 H   0  0  0  0  0  0  0  0  0  0  0  0
   -0.7328   -2.1949    0.0966 H   0  0  0  0  0  0  0  0  0  0  0  0
   -2.5144   -1.7158    1.7075 H   0  0  0  0  0  0  0  0  0  0  0  0
    2.0317   -1.5313   -1.0433 H   0  0  0  0  0  0  0  0  0  0  0  0
    1.4601    0.6877    0.8932 H   0  0  0  0  0  0  0  0  0  0  0  0
    1.6226    3.9039   -1.2200 H   0  0  0  0  0  0  0  0  0  0  0  0
  1 10  1  0
  2 20  1  0
  3  5  2  0
  3 11  1  0
  4  6  2  0
  4 12  1  0
  5 14  1  0
  6 15  1  0
  7  8  1  0
  7 19  1  0
  8 20  1  0
  9 11  1  0
  9 13  1  0
 10 21  2  0
 10 23  1  0
 11 16  2  0
 12 13  1  0
 12 19  1  0
 13 20  1  0
 14 17  2  0
 14 22  1  0
 15 18  1  0
 15 23  1  0
 16 17  1  0
 16 19  1  0
 17 24  1  0
 18 19  1  0
 18 24  1  0
  1 25  1  0
  1 26  1  0
  1 27  1  0
  2 28  1  0
  2 29  1  0
  2 30  1  0
  3 31  1  0
  4 32  1  0
  5 33  1  0
  6 34  1  0
  7 35  1  0
  7 36  1  0
  8 37  1  0
  8 38  1  0
  9 39  1  0
  9 40  1  0
 12 41  1  0
 13 42  1  0
 15 43  1  0
 18 44  1  0
 22 45  1  0
M  END
