
     RDKit          3D

 48 49  0  0  0  0  0  0  0  0999 V2000
    5.8355   -0.0072   -2.1017 C   0  0  0  0  0  0  0  0  0  0  0  0
   -2.0401   -1.9210   -3.3393 C   0  0  0  0  0  0  0  0  0  0  0  0
   -5.0832    1.2372    2.6156 C   0  0  0  0  0  0  0  0  0  0  0  0
    5.2237   -0.1875    2.9010 C   0  0  0  0  0  0  0  0  0  0  0  0
    6.3205   -0.3891    2.0711 C   0  0  0  0  0  0  0  0  0  0  0  0
    3.9893    0.1401    2.3450 C   0  0  0  0  0  0  0  0  0  0  0  0
    6.1848   -0.2642    0.6858 C   0  0  0  0  0  0  0  0  0  0  0  0
   -0.9018   -1.0414    0.6199 C   0  0  0  0  0  0  0  0  0  0  0  0
    0.1489    0.0015    0.2171 C   0  0  0  0  0  0  0  0  0  0  0  0
   -3.1889   -0.0360    0.9433 C   0  0  0  0  0  0  0  0  0  0  0  0
   -3.9214   -0.6141   -1.6771 C   0  0  0  0  0  0  0  0  0  0  0  0
    2.4710    0.6405    0.4021 C   0  0  0  0  0  0  0  0  0  0  0  0
   -2.2776   -0.6880    0.0915 C   0  0  0  0  0  0  0  0  0  0  0  0
    3.8329    0.2669    0.9510 C   0  0  0  0  0  0  0  0  0  0  0  0
   -4.8371    0.0332   -0.8220 C   0  0  0  0  0  0  0  0  0  0  0  0
    4.9484    0.0643    0.1154 C   0  0  0  0  0  0  0  0  0  0  0  0
   -2.6476   -0.9738   -1.2323 C   0  0  0  0  0  0  0  0  0  0  0  0
   -4.4636    0.3231    0.4973 C   0  0  0  0  0  0  0  0  0  0  0  0
   -6.2062    0.4108   -1.3304 C   0  0  0  0  0  0  0  0  0  0  0  0
   -7.2219   -0.1788   -0.6394 F   0  0  0  0  0  0  0  0  0  0  0  0
   -6.4438    1.7522   -1.2974 F   0  0  0  0  0  0  0  0  0  0  0  0
   -6.4063    0.0474   -2.6337 F   0  0  0  0  0  0  0  0  0  0  0  0
    1.4553   -0.3495    0.7833 N   0  0  0  0  0  0  0  0  0  0  0  0
    4.7331    0.2105   -1.2308 O   0  0  0  0  0  0  0  0  0  0  0  0
   -1.6979   -1.5948   -1.9983 O   0  0  0  0  0  0  0  0  0  0  0  0
   -5.4068    0.9571    1.2591 O   0  0  0  0  0  0  0  0  0  0  0  0
    5.4851    0.1431   -3.1274 H   0  0  0  0  0  0  0  0  0  0  0  0
    6.6352    0.7172   -1.9154 H   0  0  0  0  0  0  0  0  0  0  0  0
    6.2038   -1.0356   -2.0240 H   0  0  0  0  0  0  0  0  0  0  0  0
   -2.8804   -2.6224   -3.3730 H   0  0  0  0  0  0  0  0  0  0  0  0
   -2.2503   -1.0189   -3.9229 H   0  0  0  0  0  0  0  0  0  0  0  0
   -1.1760   -2.4161   -3.7928 H   0  0  0  0  0  0  0  0  0  0  0  0
   -5.9512    1.7229    3.0721 H   0  0  0  0  0  0  0  0  0  0  0  0
   -4.8859    0.3156    3.1728 H   0  0  0  0  0  0  0  0  0  0  0  0
   -4.2394    1.9315    2.6836 H   0  0  0  0  0  0  0  0  0  0  0  0
    5.3258   -0.2855    3.9784 H   0  0  0  0  0  0  0  0  0  0  0  0
    7.2857   -0.6447    2.5006 H   0  0  0  0  0  0  0  0  0  0  0  0
    3.1322    0.2928    2.9988 H   0  0  0  0  0  0  0  0  0  0  0  0
    7.0690   -0.4288    0.0788 H   0  0  0  0  0  0  0  0  0  0  0  0
   -0.6158   -2.0389    0.2617 H   0  0  0  0  0  0  0  0  0  0  0  0
   -0.9426   -1.1255    1.7142 H   0  0  0  0  0  0  0  0  0  0  0  0
    0.2159    0.0627   -0.8760 H   0  0  0  0  0  0  0  0  0  0  0  0
   -0.1597    0.9880    0.5849 H   0  0  0  0  0  0  0  0  0  0  0  0
   -2.8700    0.1820    1.9587 H   0  0  0  0  0  0  0  0  0  0  0  0
   -4.2345   -0.8247   -2.6965 H   0  0  0  0  0  0  0  0  0  0  0  0
    2.2067    1.6271    0.8032 H   0  0  0  0  0  0  0  0  0  0  0  0
    2.4976    0.7375   -0.6882 H   0  0  0  0  0  0  0  0  0  0  0  0
    1.7493   -1.2538    0.4124 H   0  0  0  0  0  0  0  0  0  0  0  0
  1 24  1  0
  2 25  1  0
  3 26  1  0
  4  5  2  0
  4  6  1  0
  5  7  1  0
  6 14  2  0
  7 16  2  0
  8  9  1  0
  8 13  1  0
  9 23  1  0
 10 13  2  0
 10 18  1  0
 11 15  1  0
 11 17  2  0
 12 14  1  0
 12 23  1  0
 13 17  1  0
 14 16  1  0
 15 18  2  0
 15 19  1  0
 16 24  1  0
 17 25  1  0
 18 26  1  0
 19 20  1  0
 19 21  1  0
 19 22  1  0
  1 27  1  0
  1 28  1  0
  1 29  1  0
  2 30  1  0
  2 31  1  0
  2 32  1  0
  3 33  1  0
  3 34  1  0
  3 35  1  0
  4 36  1  0
  5 37  1  0
  6 38  1  0
  7 39  1  0
  8 40  1  0
  8 41  1  0
  9 42  1  0
  9 43  1  0
 10 44  1  0
 11 45  1  0
 12 46  1  0
 12 47  1  0
 23 48  1  0
M  END
