
     RDKit          3D

 45 47  0  0  0  0  0  0  0  0999 V2000
    4.6973    0.2284    0.1660 C   0  0  0  0  0  0  0  0  0  0  0  0
    4.9023    0.3726   -2.2153 C   0  0  0  0  0  0  0  0  0  0  0  0
   -2.8018    3.6301   -0.2152 C   0  0  0  0  0  0  0  0  0  0  0  0
   -1.5934    3.6507    0.4705 C   0  0  0  0  0  0  0  0  0  0  0  0
    1.6787    0.4283   -0.2250 C   0  0  0  0  0  0  0  0  0  0  0  0
   -3.3357    2.4146   -0.6395 C   0  0  0  0  0  0  0  0  0  0  0  0
   -0.9183    2.4552    0.7199 C   0  0  0  0  0  0  0  0  0  0  0  0
   -3.2686   -0.0953   -0.8208 C   0  0  0  0  0  0  0  0  0  0  0  0
   -3.6177   -0.9450    0.3949 C   0  0  0  0  0  0  0  0  0  0  0  0
   -2.7859   -2.8355    1.7633 C   0  0  0  0  0  0  0  0  0  0  0  0
   -1.8194   -3.5843    2.4303 C   0  0  0  0  0  0  0  0  0  0  0  0
    2.7285   -0.0100   -1.2539 C   0  0  0  0  0  0  0  0  0  0  0  0
    0.3108   -0.1773   -0.5628 C   0  0  0  0  0  0  0  0  0  0  0  0
   -0.1716   -1.9477    1.7990 C   0  0  0  0  0  0  0  0  0  0  0  0
   -2.6617    1.2072   -0.3858 C   0  0  0  0  0  0  0  0  0  0  0  0
   -2.4615   -1.6359    1.0851 C   0  0  0  0  0  0  0  0  0  0  0  0
   -0.5102   -3.1356    2.4427 C   0  0  0  0  0  0  0  0  0  0  0  0
   -1.4340    1.2205    0.2906 C   0  0  0  0  0  0  0  0  0  0  0  0
   -1.1307   -1.1707    1.1068 C   0  0  0  0  0  0  0  0  0  0  0  0
    0.6996   -4.0402    3.2666 Cl  0  0  0  0  0  0  0  0  0  0  0  0
    4.0320    0.6507   -1.0689 N   0  0  0  0  0  0  0  0  0  0  0  0
   -0.6728    0.0488    0.5333 N   0  0  0  0  0  0  0  0  0  0  0  0
    4.1312    0.5395    1.0492 H   0  0  0  0  0  0  0  0  0  0  0  0
    5.6794    0.7068    0.2564 H   0  0  0  0  0  0  0  0  0  0  0  0
    4.8410   -0.8573    0.2073 H   0  0  0  0  0  0  0  0  0  0  0  0
    4.4472    0.7373   -3.1429 H   0  0  0  0  0  0  0  0  0  0  0  0
    5.8579    0.8988   -2.1111 H   0  0  0  0  0  0  0  0  0  0  0  0
    5.1073   -0.6982   -2.3280 H   0  0  0  0  0  0  0  0  0  0  0  0
   -3.3328    4.5574   -0.4123 H   0  0  0  0  0  0  0  0  0  0  0  0
   -1.1743    4.5922    0.8143 H   0  0  0  0  0  0  0  0  0  0  0  0
    1.6129    1.5220   -0.2201 H   0  0  0  0  0  0  0  0  0  0  0  0
    1.9770    0.1217    0.7826 H   0  0  0  0  0  0  0  0  0  0  0  0
   -4.2883    2.4130   -1.1642 H   0  0  0  0  0  0  0  0  0  0  0  0
    0.0199    2.4835    1.2688 H   0  0  0  0  0  0  0  0  0  0  0  0
   -2.5930   -0.6204   -1.5069 H   0  0  0  0  0  0  0  0  0  0  0  0
   -4.1882    0.0995   -1.3869 H   0  0  0  0  0  0  0  0  0  0  0  0
   -4.3124   -1.7193    0.0416 H   0  0  0  0  0  0  0  0  0  0  0  0
   -4.1603   -0.3510    1.1423 H   0  0  0  0  0  0  0  0  0  0  0  0
   -3.8140   -3.1956    1.7689 H   0  0  0  0  0  0  0  0  0  0  0  0
   -2.0979   -4.5033    2.9374 H   0  0  0  0  0  0  0  0  0  0  0  0
    2.3414    0.2492   -2.2483 H   0  0  0  0  0  0  0  0  0  0  0  0
    2.8417   -1.1019   -1.2318 H   0  0  0  0  0  0  0  0  0  0  0  0
   -0.0520    0.2445   -1.5112 H   0  0  0  0  0  0  0  0  0  0  0  0
    0.4352   -1.2507   -0.7645 H   0  0  0  0  0  0  0  0  0  0  0  0
    0.8550   -1.5973    1.8619 H   0  0  0  0  0  0  0  0  0  0  0  0
  1 21  1  0
  2 21  1  0
  3  4  2  0
  3  6  1  0
  4  7  1  0
  5 12  1  0
  5 13  1  0
  6 15  2  0
  7 18  2  0
  8  9  1  0
  8 15  1  0
  9 16  1  0
 10 11  1  0
 10 16  2  0
 11 17  2  0
 12 21  1  0
 13 22  1  0
 14 17  1  0
 14 19  2  0
 15 18  1  0
 16 19  1  0
 17 20  1  0
 18 22  1  0
 19 22  1  0
  1 23  1  0
  1 24  1  0
  1 25  1  0
  2 26  1  0
  2 27  1  0
  2 28  1  0
  3 29  1  0
  4 30  1  0
  5 31  1  0
  5 32  1  0
  6 33  1  0
  7 34  1  0
  8 35  1  0
  8 36  1  0
  9 37  1  0
  9 38  1  0
 10 39  1  0
 11 40  1  0
 12 41  1  0
 12 42  1  0
 13 43  1  0
 13 44  1  0
 14 45  1  0
M  END
