
     RDKit          3D

 47 48  0  0  0  0  0  0  0  0999 V2000
    5.8962   -0.4631    2.8464 C   0  0  0  0  0  0  0  0  0  0  0  0
   -1.3083    2.7417   -2.4214 C   0  0  0  0  0  0  0  0  0  0  0  0
   -0.9863    3.4027   -0.0358 C   0  0  0  0  0  0  0  0  0  0  0  0
   -4.0776   -2.8059   -0.8811 C   0  0  0  0  0  0  0  0  0  0  0  0
    4.6504   -0.0809    2.0547 C   0  0  0  0  0  0  0  0  0  0  0  0
    3.8455   -1.3171    1.6532 C   0  0  0  0  0  0  0  0  0  0  0  0
   -4.1294   -0.2766   -0.5109 C   0  0  0  0  0  0  0  0  0  0  0  0
   -3.4757    1.0192   -0.9881 C   0  0  0  0  0  0  0  0  0  0  0  0
   -2.0226   -1.4309   -1.1776 C   0  0  0  0  0  0  0  0  0  0  0  0
    1.3304   -1.1035    1.6226 C   0  0  0  0  0  0  0  0  0  0  0  0
    2.5604   -0.4684   -0.3442 C   0  0  0  0  0  0  0  0  0  0  0  0
   -1.3938    2.4293   -1.1130 C   0  0  0  0  0  0  0  0  0  0  0  0
   -3.3320   -1.5022   -0.8757 C   0  0  0  0  0  0  0  0  0  0  0  0
    2.5548   -0.9575    0.9656 C   0  0  0  0  0  0  0  0  0  0  0  0
   -1.9838    1.0976   -0.6138 C   0  0  0  0  0  0  0  0  0  0  0  0
   -1.1991   -0.1530   -1.1323 C   0  0  0  0  0  0  0  0  0  0  0  0
    0.1327   -0.8087    0.9588 C   0  0  0  0  0  0  0  0  0  0  0  0
    1.3606   -0.1577   -0.9861 C   0  0  0  0  0  0  0  0  0  0  0  0
    0.1143   -0.3566   -0.3713 C   0  0  0  0  0  0  0  0  0  0  0  0
   -1.0488   -0.9772    1.6300 O   0  0  0  0  0  0  0  0  0  0  0  0
    1.4806    0.3552   -2.2494 O   0  0  0  0  0  0  0  0  0  0  0  0
    6.4964    0.4251    3.0673 H   0  0  0  0  0  0  0  0  0  0  0  0
    5.6313   -0.9460    3.7922 H   0  0  0  0  0  0  0  0  0  0  0  0
    6.5242   -1.1561    2.2704 H   0  0  0  0  0  0  0  0  0  0  0  0
   -1.6293    2.0443   -3.1747 H   0  0  0  0  0  0  0  0  0  0  0  0
   -0.9240    3.7027   -2.7602 H   0  0  0  0  0  0  0  0  0  0  0  0
   -0.7175    4.3826   -0.4368 H   0  0  0  0  0  0  0  0  0  0  0  0
   -0.1233    3.0176    0.5184 H   0  0  0  0  0  0  0  0  0  0  0  0
   -1.8017    3.5437    0.6787 H   0  0  0  0  0  0  0  0  0  0  0  0
   -4.9463   -2.7410   -1.5423 H   0  0  0  0  0  0  0  0  0  0  0  0
   -3.4580   -3.6351   -1.2369 H   0  0  0  0  0  0  0  0  0  0  0  0
   -4.4259   -3.0484    0.1272 H   0  0  0  0  0  0  0  0  0  0  0  0
    4.9528    0.4836    1.1614 H   0  0  0  0  0  0  0  0  0  0  0  0
    4.0290    0.5935    2.6598 H   0  0  0  0  0  0  0  0  0  0  0  0
    3.6346   -1.9232    2.5414 H   0  0  0  0  0  0  0  0  0  0  0  0
    4.4352   -1.9585    0.9841 H   0  0  0  0  0  0  0  0  0  0  0  0
   -4.2761   -0.2501    0.5776 H   0  0  0  0  0  0  0  0  0  0  0  0
   -5.1259   -0.3373   -0.9719 H   0  0  0  0  0  0  0  0  0  0  0  0
   -4.0193    1.8724   -0.5608 H   0  0  0  0  0  0  0  0  0  0  0  0
   -3.5983    1.0882   -2.0794 H   0  0  0  0  0  0  0  0  0  0  0  0
   -1.4789   -2.3320   -1.4513 H   0  0  0  0  0  0  0  0  0  0  0  0
    1.3106   -1.4638    2.6488 H   0  0  0  0  0  0  0  0  0  0  0  0
    3.4970   -0.3195   -0.8753 H   0  0  0  0  0  0  0  0  0  0  0  0
   -1.9481    1.1096    0.4839 H   0  0  0  0  0  0  0  0  0  0  0  0
   -0.9578    0.0108   -2.1897 H   0  0  0  0  0  0  0  0  0  0  0  0
   -0.8725   -1.4170    2.4775 H   0  0  0  0  0  0  0  0  0  0  0  0
    0.8235    1.0676   -2.3293 H   0  0  0  0  0  0  0  0  0  0  0  0
  1  5  1  0
  2 12  2  3
  3 12  1  0
  4 13  1  0
  5  6  1  0
  6 14  1  0
  7  8  1  0
  7 13  1  0
  8 15  1  0
  9 13  2  0
  9 16  1  0
 10 14  2  0
 10 17  1  0
 11 14  1  0
 11 18  2  0
 12 15  1  0
 15 16  1  0
 16 19  1  0
 17 19  2  0
 17 20  1  0
 18 19  1  0
 18 21  1  0
  1 22  1  0
  1 23  1  0
  1 24  1  0
  2 25  1  0
  2 26  1  0
  3 27  1  0
  3 28  1  0
  3 29  1  0
  4 30  1  0
  4 31  1  0
  4 32  1  0
  5 33  1  0
  5 34  1  0
  6 35  1  0
  6 36  1  0
  7 37  1  0
  7 38  1  0
  8 39  1  0
  8 40  1  0
  9 41  1  0
 10 42  1  0
 11 43  1  0
 15 44  1  0
 16 45  1  0
 20 46  1  0
 21 47  1  0
M  END
