
     RDKit          3D

 48 50  0  0  0  0  0  0  0  0999 V2000
   -1.9301    3.1566    1.1849 C   0  0  0  0  0  0  0  0  0  0  0  0
   -1.9695    1.9141    2.0616 C   0  0  0  0  0  0  0  0  0  0  0  0
   -4.7585   -1.8829   -0.4545 C   0  0  0  0  0  0  0  0  0  0  0  0
   -4.1228   -1.0527   -1.5704 C   0  0  0  0  0  0  0  0  0  0  0  0
   -3.7033   -2.4909    0.4580 C   0  0  0  0  0  0  0  0  0  0  0  0
    6.0950   -0.2265   -0.9799 C   0  0  0  0  0  0  0  0  0  0  0  0
   -0.9200    0.8625    1.6800 C   0  0  0  0  0  0  0  0  0  0  0  0
    5.5004    1.1853   -0.8587 C   0  0  0  0  0  0  0  0  0  0  0  0
    5.1666   -1.1624   -0.1923 C   0  0  0  0  0  0  0  0  0  0  0  0
    2.9660    1.7304   -0.8755 C   0  0  0  0  0  0  0  0  0  0  0  0
    1.6753    1.2300   -0.6611 C   0  0  0  0  0  0  0  0  0  0  0  0
   -2.6354   -0.7658   -1.3407 C   0  0  0  0  0  0  0  0  0  0  0  0
   -2.7686   -1.4118    1.0193 C   0  0  0  0  0  0  0  0  0  0  0  0
    2.5835   -0.9600   -0.1109 C   0  0  0  0  0  0  0  0  0  0  0  0
    4.0427    0.8754   -0.7156 C   0  0  0  0  0  0  0  0  0  0  0  0
    3.8542   -0.4557   -0.3378 C   0  0  0  0  0  0  0  0  0  0  0  0
    1.4747   -0.1107   -0.2738 C   0  0  0  0  0  0  0  0  0  0  0  0
   -1.0754    0.2614    0.2643 C   0  0  0  0  0  0  0  0  0  0  0  0
    0.1119   -0.6926   -0.0349 C   0  0  0  0  0  0  0  0  0  0  0  0
   -2.4039   -0.3687    0.0481 N   0  0  0  0  0  0  0  0  0  0  0  0
    0.0072   -1.9212   -0.0697 O   0  0  0  0  0  0  0  0  0  0  0  0
   -2.6305    3.9064    1.5675 H   0  0  0  0  0  0  0  0  0  0  0  0
   -0.9292    3.5998    1.1795 H   0  0  0  0  0  0  0  0  0  0  0  0
   -2.2171    2.9335    0.1522 H   0  0  0  0  0  0  0  0  0  0  0  0
   -2.9764    1.4842    2.0394 H   0  0  0  0  0  0  0  0  0  0  0  0
   -1.7860    2.2182    3.0992 H   0  0  0  0  0  0  0  0  0  0  0  0
   -5.4211   -1.2403    0.1397 H   0  0  0  0  0  0  0  0  0  0  0  0
   -5.3905   -2.6680   -0.8839 H   0  0  0  0  0  0  0  0  0  0  0  0
   -4.6748   -0.1088   -1.6664 H   0  0  0  0  0  0  0  0  0  0  0  0
   -4.2373   -1.5742   -2.5287 H   0  0  0  0  0  0  0  0  0  0  0  0
   -4.1842   -3.0271    1.2827 H   0  0  0  0  0  0  0  0  0  0  0  0
   -3.1185   -3.2319   -0.1028 H   0  0  0  0  0  0  0  0  0  0  0  0
    7.1318   -0.2756   -0.6329 H   0  0  0  0  0  0  0  0  0  0  0  0
    6.0940   -0.5271   -2.0373 H   0  0  0  0  0  0  0  0  0  0  0  0
    0.0720    1.3208    1.7795 H   0  0  0  0  0  0  0  0  0  0  0  0
   -0.9381    0.0611    2.4301 H   0  0  0  0  0  0  0  0  0  0  0  0
    5.8664    1.6931    0.0392 H   0  0  0  0  0  0  0  0  0  0  0  0
    5.7173    1.7865   -1.7461 H   0  0  0  0  0  0  0  0  0  0  0  0
    5.4555   -1.2101    0.8638 H   0  0  0  0  0  0  0  0  0  0  0  0
    5.1526   -2.1669   -0.6248 H   0  0  0  0  0  0  0  0  0  0  0  0
    3.1133    2.7659   -1.1681 H   0  0  0  0  0  0  0  0  0  0  0  0
    0.8452    1.9131   -0.8139 H   0  0  0  0  0  0  0  0  0  0  0  0
   -2.0415   -1.6464   -1.6146 H   0  0  0  0  0  0  0  0  0  0  0  0
   -2.3423    0.0380   -2.0269 H   0  0  0  0  0  0  0  0  0  0  0  0
   -1.8975   -1.9192    1.4478 H   0  0  0  0  0  0  0  0  0  0  0  0
   -3.2795   -0.9213    1.8576 H   0  0  0  0  0  0  0  0  0  0  0  0
    2.4520   -1.9966    0.1885 H   0  0  0  0  0  0  0  0  0  0  0  0
   -1.0255    1.0787   -0.4605 H   0  0  0  0  0  0  0  0  0  0  0  0
  1  2  1  0
  2  7  1  0
  3  4  1  0
  3  5  1  0
  4 12  1  0
  5 13  1  0
  6  8  1  0
  6  9  1  0
  7 18  1  0
  8 15  1  0
  9 16  1  0
 10 11  1  0
 10 15  2  0
 11 17  2  0
 12 20  1  0
 13 20  1  0
 14 16  2  0
 14 17  1  0
 15 16  1  0
 17 19  1  0
 18 19  1  0
 18 20  1  0
 19 21  2  0
  1 22  1  0
  1 23  1  0
  1 24  1  0
  2 25  1  0
  2 26  1  0
  3 27  1  0
  3 28  1  0
  4 29  1  0
  4 30  1  0
  5 31  1  0
  5 32  1  0
  6 33  1  0
  6 34  1  0
  7 35  1  0
  7 36  1  0
  8 37  1  0
  8 38  1  0
  9 39  1  0
  9 40  1  0
 10 41  1  0
 11 42  1  0
 12 43  1  0
 12 44  1  0
 13 45  1  0
 13 46  1  0
 14 47  1  0
 18 48  1  0
M  END
