
     RDKit          3D

 51 55  0  0  0  0  0  0  0  0999 V2000
   -2.5989   -1.6350   -1.0685 C   0  0  0  0  0  0  0  0  0  0  0  0
    2.1784    0.9432   -2.0901 C   0  0  0  0  0  0  0  0  0  0  0  0
    1.8434    0.4967    1.7874 C   0  0  0  0  0  0  0  0  0  0  0  0
    0.3308    0.4715    1.8710 C   0  0  0  0  0  0  0  0  0  0  0  0
   -2.6672   -0.8050    1.8621 C   0  0  0  0  0  0  0  0  0  0  0  0
   -4.1286   -0.6311    1.4119 C   0  0  0  0  0  0  0  0  0  0  0  0
   -0.6528    1.2356   -1.2895 C   0  0  0  0  0  0  0  0  0  0  0  0
   -2.1352    0.8293   -1.5029 C   0  0  0  0  0  0  0  0  0  0  0  0
    3.8631    1.2371    0.4579 C   0  0  0  0  0  0  0  0  0  0  0  0
    2.4114   -1.1891   -0.7646 C   0  0  0  0  0  0  0  0  0  0  0  0
    2.3115    1.0959    0.4516 C   0  0  0  0  0  0  0  0  0  0  0  0
   -0.3508   -0.2945    0.7222 C   0  0  0  0  0  0  0  0  0  0  0  0
   -1.8665   -0.0192    0.8260 C   0  0  0  0  0  0  0  0  0  0  0  0
    0.1995    0.0884   -0.6949 C   0  0  0  0  0  0  0  0  0  0  0  0
    4.5104   -0.0549    0.1418 C   0  0  0  0  0  0  0  0  0  0  0  0
    3.8564   -1.1470   -0.4325 C   0  0  0  0  0  0  0  0  0  0  0  0
   -4.0762    0.0860    0.0490 C   0  0  0  0  0  0  0  0  0  0  0  0
   -2.6513   -0.2036   -0.4786 C   0  0  0  0  0  0  0  0  0  0  0  0
    1.7669    0.2559   -0.7605 C   0  0  0  0  0  0  0  0  0  0  0  0
    5.7966   -0.3356    0.3323 N   0  0  0  0  0  0  0  0  0  0  0  0
    4.7103   -2.1517   -0.6107 N   0  0  0  0  0  0  0  0  0  0  0  0
   -5.1048   -0.3746   -0.8054 O   0  0  0  0  0  0  0  0  0  0  0  0
    5.9307   -1.6509   -0.1352 O   0  0  0  0  0  0  0  0  0  0  0  0
   -1.5867   -1.9800   -1.2806 H   0  0  0  0  0  0  0  0  0  0  0  0
   -3.0423   -2.3776   -0.3970 H   0  0  0  0  0  0  0  0  0  0  0  0
   -3.1579   -1.6855   -2.0102 H   0  0  0  0  0  0  0  0  0  0  0  0
    1.8992    2.0023   -2.0953 H   0  0  0  0  0  0  0  0  0  0  0  0
    1.6998    0.4555   -2.9472 H   0  0  0  0  0  0  0  0  0  0  0  0
    3.2575    0.9019   -2.2691 H   0  0  0  0  0  0  0  0  0  0  0  0
    2.2365   -0.5145    1.9394 H   0  0  0  0  0  0  0  0  0  0  0  0
    2.2276    1.1030    2.6173 H   0  0  0  0  0  0  0  0  0  0  0  0
    0.0341    0.0305    2.8307 H   0  0  0  0  0  0  0  0  0  0  0  0
   -0.0193    1.5120    1.8907 H   0  0  0  0  0  0  0  0  0  0  0  0
   -2.3934   -1.8659    1.8612 H   0  0  0  0  0  0  0  0  0  0  0  0
   -2.5128   -0.4228    2.8762 H   0  0  0  0  0  0  0  0  0  0  0  0
   -4.6896   -0.0269    2.1337 H   0  0  0  0  0  0  0  0  0  0  0  0
   -4.6353   -1.6008    1.3491 H   0  0  0  0  0  0  0  0  0  0  0  0
   -0.6024    2.1088   -0.6273 H   0  0  0  0  0  0  0  0  0  0  0  0
   -0.2768    1.5653   -2.2622 H   0  0  0  0  0  0  0  0  0  0  0  0
   -2.7393    1.7446   -1.4724 H   0  0  0  0  0  0  0  0  0  0  0  0
   -2.2524    0.4361   -2.5207 H   0  0  0  0  0  0  0  0  0  0  0  0
    4.2098    1.6173    1.4259 H   0  0  0  0  0  0  0  0  0  0  0  0
    4.1617    1.9759   -0.2958 H   0  0  0  0  0  0  0  0  0  0  0  0
    2.2634   -1.6623   -1.7436 H   0  0  0  0  0  0  0  0  0  0  0  0
    1.9158   -1.8326   -0.0284 H   0  0  0  0  0  0  0  0  0  0  0  0
    1.8987    2.1126    0.3857 H   0  0  0  0  0  0  0  0  0  0  0  0
   -0.1666   -1.3659    0.8730 H   0  0  0  0  0  0  0  0  0  0  0  0
   -1.9821    1.0405    1.1118 H   0  0  0  0  0  0  0  0  0  0  0  0
    0.0037   -0.7599   -1.3611 H   0  0  0  0  0  0  0  0  0  0  0  0
   -4.2269    1.1613    0.2092 H   0  0  0  0  0  0  0  0  0  0  0  0
   -5.0014    0.0795   -1.6589 H   0  0  0  0  0  0  0  0  0  0  0  0
  1 18  1  0
  2 19  1  0
  3  4  1  0
  3 11  1  0
  4 12  1  0
  5  6  1  0
  5 13  1  0
  6 17  1  0
  7  8  1  0
  7 14  1  0
  8 18  1  0
  9 11  1  0
  9 15  1  0
 10 16  1  0
 10 19  1  0
 11 19  1  0
 12 13  1  0
 12 14  1  0
 13 18  1  0
 14 19  1  0
 15 16  1  0
 15 20  2  0
 16 21  2  0
 17 18  1  0
 17 22  1  0
 20 23  1  0
 21 23  1  0
  1 24  1  0
  1 25  1  0
  1 26  1  0
  2 27  1  0
  2 28  1  0
  2 29  1  0
  3 30  1  0
  3 31  1  0
  4 32  1  0
  4 33  1  0
  5 34  1  0
  5 35  1  0
  6 36  1  0
  6 37  1  0
  7 38  1  0
  7 39  1  0
  8 40  1  0
  8 41  1  0
  9 42  1  0
  9 43  1  0
 10 44  1  0
 10 45  1  0
 11 46  1  0
 12 47  1  0
 13 48  1  0
 14 49  1  0
 17 50  1  0
 22 51  1  0
M  END
