
     RDKit          3D

 51 53  0  0  0  0  0  0  0  0999 V2000
    6.2396   -1.6602   -1.1746 C   0  0  0  0  0  0  0  0  0  0  0  0
   -4.8385   -0.6431    1.3673 C   0  0  0  0  0  0  0  0  0  0  0  0
   -1.0171    0.2883   -2.3659 C   0  0  0  0  0  0  0  0  0  0  0  0
    5.4573   -0.4047   -0.8046 C   0  0  0  0  0  0  0  0  0  0  0  0
   -5.5639    2.3761    0.7136 C   0  0  0  0  0  0  0  0  0  0  0  0
    1.9063   -1.6594   -1.0710 C   0  0  0  0  0  0  0  0  0  0  0  0
    1.9285    0.8917   -0.9200 C   0  0  0  0  0  0  0  0  0  0  0  0
    0.0912   -0.8581    3.4430 C   0  0  0  0  0  0  0  0  0  0  0  0
   -5.8427    3.3875   -0.3109 C   0  0  0  0  0  0  0  0  0  0  0  0
   -4.3397    1.5479    0.3217 C   0  0  0  0  0  0  0  0  0  0  0  0
    3.2642   -1.4289   -0.4049 C   0  0  0  0  0  0  0  0  0  0  0  0
    3.4385    0.8707   -1.1810 C   0  0  0  0  0  0  0  0  0  0  0  0
   -0.7279   -0.6910    4.5357 C   0  0  0  0  0  0  0  0  0  0  0  0
    1.2481   -0.3434   -1.5148 C   0  0  0  0  0  0  0  0  0  0  0  0
   -0.5683   -0.5500    2.2159 C   0  0  0  0  0  0  0  0  0  0  0  0
   -1.8852   -0.1624    2.4090 C   0  0  0  0  0  0  0  0  0  0  0  0
   -2.6518    0.1676    1.2888 C   0  0  0  0  0  0  0  0  0  0  0  0
   -0.7587   -0.2835   -0.0444 C   0  0  0  0  0  0  0  0  0  0  0  0
   -6.0651    4.1821   -1.1269 N   0  0  0  0  0  0  0  0  0  0  0  0
    0.0032   -0.6194    0.9961 N   0  0  0  0  0  0  0  0  0  0  0  0
   -2.0433    0.0973    0.0810 N   0  0  0  0  0  0  0  0  0  0  0  0
   -4.0093    0.5700    1.3808 N   0  0  0  0  0  0  0  0  0  0  0  0
   -0.2167   -0.3470   -1.3267 N   0  0  0  0  0  0  0  0  0  0  0  0
    4.0433   -0.4733   -1.1970 N   0  0  0  0  0  0  0  0  0  0  0  0
   -2.2887   -0.1637    4.0839 S   0  0  0  0  0  0  0  0  0  0  0  0
    7.3073   -1.4998   -0.9909 H   0  0  0  0  0  0  0  0  0  0  0  0
    5.9336   -2.5264   -0.5813 H   0  0  0  0  0  0  0  0  0  0  0  0
    6.1163   -1.9034   -2.2352 H   0  0  0  0  0  0  0  0  0  0  0  0
   -5.8920   -0.3813    1.5087 H   0  0  0  0  0  0  0  0  0  0  0  0
   -4.5760   -1.3238    2.1852 H   0  0  0  0  0  0  0  0  0  0  0  0
   -4.7503   -1.1856    0.4179 H   0  0  0  0  0  0  0  0  0  0  0  0
   -0.5824    0.1125   -3.3563 H   0  0  0  0  0  0  0  0  0  0  0  0
   -2.0320   -0.1251   -2.4057 H   0  0  0  0  0  0  0  0  0  0  0  0
   -1.0735    1.3722   -2.2142 H   0  0  0  0  0  0  0  0  0  0  0  0
    5.5589   -0.2044    0.2693 H   0  0  0  0  0  0  0  0  0  0  0  0
    5.9355    0.4305   -1.3328 H   0  0  0  0  0  0  0  0  0  0  0  0
   -6.4421    1.7331    0.8364 H   0  0  0  0  0  0  0  0  0  0  0  0
   -5.3908    2.8633    1.6804 H   0  0  0  0  0  0  0  0  0  0  0  0
    2.0446   -2.2904   -1.9601 H   0  0  0  0  0  0  0  0  0  0  0  0
    1.2736   -2.2522   -0.4022 H   0  0  0  0  0  0  0  0  0  0  0  0
    1.7682    0.9482    0.1624 H   0  0  0  0  0  0  0  0  0  0  0  0
    1.4958    1.8080   -1.3397 H   0  0  0  0  0  0  0  0  0  0  0  0
    1.1213   -1.1830    3.5082 H   0  0  0  0  0  0  0  0  0  0  0  0
   -4.5099    1.0419   -0.6390 H   0  0  0  0  0  0  0  0  0  0  0  0
   -3.5022    2.2462    0.1763 H   0  0  0  0  0  0  0  0  0  0  0  0
    3.7620   -2.4024   -0.3469 H   0  0  0  0  0  0  0  0  0  0  0  0
    3.1380   -1.0772    0.6273 H   0  0  0  0  0  0  0  0  0  0  0  0
    3.6388    1.3370   -2.1533 H   0  0  0  0  0  0  0  0  0  0  0  0
    3.9091    1.5109   -0.4229 H   0  0  0  0  0  0  0  0  0  0  0  0
   -0.4852   -0.8507    5.5775 H   0  0  0  0  0  0  0  0  0  0  0  0
    1.4303   -0.2890   -2.5985 H   0  0  0  0  0  0  0  0  0  0  0  0
  1  4  1  0
  2 22  1  0
  3 23  1  0
  4 24  1  0
  5  9  1  0
  5 10  1  0
  6 11  1  0
  6 14  1  0
  7 12  1  0
  7 14  1  0
  8 13  2  0
  8 15  1  0
  9 19  3  0
 10 22  1  0
 11 24  1  0
 12 24  1  0
 13 25  1  0
 14 23  1  0
 15 16  2  0
 15 20  1  0
 16 17  1  0
 16 25  1  0
 17 21  2  0
 17 22  1  0
 18 20  2  0
 18 21  1  0
 18 23  1  0
  1 26  1  0
  1 27  1  0
  1 28  1  0
  2 29  1  0
  2 30  1  0
  2 31  1  0
  3 32  1  0
  3 33  1  0
  3 34  1  0
  4 35  1  0
  4 36  1  0
  5 37  1  0
  5 38  1  0
  6 39  1  0
  6 40  1  0
  7 41  1  0
  7 42  1  0
  8 43  1  0
 10 44  1  0
 10 45  1  0
 11 46  1  0
 11 47  1  0
 12 48  1  0
 12 49  1  0
 13 50  1  0
 14 51  1  0
M  END
