
     RDKit          3D

 47 49  0  0  0  0  0  0  0  0999 V2000
    3.2593    0.4154    2.8954 C   0  0  0  0  0  0  0  0  0  0  0  0
    2.0455    0.8640    2.3769 C   0  0  0  0  0  0  0  0  0  0  0  0
    4.1683   -0.2639    2.0795 C   0  0  0  0  0  0  0  0  0  0  0  0
   -5.3879   -1.3432   -2.9254 C   0  0  0  0  0  0  0  0  0  0  0  0
   -4.5774   -1.0900   -1.8130 C   0  0  0  0  0  0  0  0  0  0  0  0
   -3.1368   -0.0705    0.9965 C   0  0  0  0  0  0  0  0  0  0  0  0
   -1.9747    0.7458    0.4134 C   0  0  0  0  0  0  0  0  0  0  0  0
    2.6448   -0.0450    0.2257 C   0  0  0  0  0  0  0  0  0  0  0  0
   -7.0694    0.2155   -2.1126 C   0  0  0  0  0  0  0  0  0  0  0  0
    0.4088    1.1206    0.4701 C   0  0  0  0  0  0  0  0  0  0  0  0
   -5.3623    1.2112    0.9201 C   0  0  0  0  0  0  0  0  0  0  0  0
    5.9033   -1.6902    0.2474 C   0  0  0  0  0  0  0  0  0  0  0  0
    1.7261    0.6428    1.0323 C   0  0  0  0  0  0  0  0  0  0  0  0
   -4.4533    0.3139    0.3939 C   0  0  0  0  0  0  0  0  0  0  0  0
   -6.6086   -0.6959   -3.0610 C   0  0  0  0  0  0  0  0  0  0  0  0
    3.8649   -0.4989    0.7403 C   0  0  0  0  0  0  0  0  0  0  0  0
   -5.0119   -0.1718   -0.8322 C   0  0  0  0  0  0  0  0  0  0  0  0
   -6.2466    0.4575   -1.0063 C   0  0  0  0  0  0  0  0  0  0  0  0
    7.0307    0.1366   -1.1016 C   0  0  0  0  0  0  0  0  0  0  0  0
    7.0604   -0.6986    0.1699 C   0  0  0  0  0  0  0  0  0  0  0  0
   -7.3674   -0.9543   -4.1353 F   0  0  0  0  0  0  0  0  0  0  0  0
    8.1365    0.9266   -1.1818 F   0  0  0  0  0  0  0  0  0  0  0  0
    7.0519   -0.6591   -2.2042 F   0  0  0  0  0  0  0  0  0  0  0  0
    8.2271   -1.4006    0.2553 F   0  0  0  0  0  0  0  0  0  0  0  0
    7.0395    0.1142    1.2632 F   0  0  0  0  0  0  0  0  0  0  0  0
   -0.6989    0.3304    1.0056 N   0  0  0  0  0  0  0  0  0  0  0  0
   -6.4338    1.2891    0.0727 N   0  0  0  0  0  0  0  0  0  0  0  0
    4.6528   -1.1391   -0.1736 O   0  0  0  0  0  0  0  0  0  0  0  0
    3.4977    0.5936    3.9412 H   0  0  0  0  0  0  0  0  0  0  0  0
    1.3402    1.3806    3.0252 H   0  0  0  0  0  0  0  0  0  0  0  0
    5.0993   -0.5871    2.5323 H   0  0  0  0  0  0  0  0  0  0  0  0
   -5.0686   -2.0464   -3.6882 H   0  0  0  0  0  0  0  0  0  0  0  0
   -3.6241   -1.5993   -1.7085 H   0  0  0  0  0  0  0  0  0  0  0  0
   -3.1795    0.0720    2.0843 H   0  0  0  0  0  0  0  0  0  0  0  0
   -2.9638   -1.1416    0.8307 H   0  0  0  0  0  0  0  0  0  0  0  0
   -2.1474    1.8111    0.6118 H   0  0  0  0  0  0  0  0  0  0  0  0
   -1.9419    0.6143   -0.6755 H   0  0  0  0  0  0  0  0  0  0  0  0
    2.4104   -0.2354   -0.8199 H   0  0  0  0  0  0  0  0  0  0  0  0
   -8.0264    0.7073   -2.2405 H   0  0  0  0  0  0  0  0  0  0  0  0
    0.4317    1.0565   -0.6249 H   0  0  0  0  0  0  0  0  0  0  0  0
    0.2853    2.1801    0.7268 H   0  0  0  0  0  0  0  0  0  0  0  0
   -5.3352    1.8000    1.8278 H   0  0  0  0  0  0  0  0  0  0  0  0
    5.8365   -2.1632    1.2337 H   0  0  0  0  0  0  0  0  0  0  0  0
    6.1146   -2.5128   -0.4467 H   0  0  0  0  0  0  0  0  0  0  0  0
    6.1555    0.7898   -1.1526 H   0  0  0  0  0  0  0  0  0  0  0  0
   -0.5278   -0.6536    0.8002 H   0  0  0  0  0  0  0  0  0  0  0  0
   -7.2476    1.8718    0.2146 H   0  0  0  0  0  0  0  0  0  0  0  0
  1  2  2  0
  1  3  1  0
  2 13  1  0
  3 16  2  0
  4  5  2  0
  4 15  1  0
  5 17  1  0
  6  7  1  0
  6 14  1  0
  7 26  1  0
  8 13  2  0
  8 16  1  0
  9 15  2  0
  9 18  1  0
 10 13  1  0
 10 26  1  0
 11 14  2  0
 11 27  1  0
 12 20  1  0
 12 28  1  0
 14 17  1  0
 15 21  1  0
 16 28  1  0
 17 18  2  0
 18 27  1  0
 19 20  1  0
 19 22  1  0
 19 23  1  0
 20 24  1  0
 20 25  1  0
  1 29  1  0
  2 30  1  0
  3 31  1  0
  4 32  1  0
  5 33  1  0
  6 34  1  0
  6 35  1  0
  7 36  1  0
  7 37  1  0
  8 38  1  0
  9 39  1  0
 10 40  1  0
 10 41  1  0
 11 42  1  0
 12 43  1  0
 12 44  1  0
 19 45  1  0
 26 46  1  0
 27 47  1  0
M  END
