
     RDKit          3D

 46 49  0  0  0  0  0  0  0  0999 V2000
   -2.1740   -0.3833    2.1636 C   0  0  0  0  0  0  0  0  0  0  0  0
   -2.2603   -2.1861    0.5909 C   0  0  0  0  0  0  0  0  0  0  0  0
    3.2593    0.2858    3.7125 C   0  0  0  0  0  0  0  0  0  0  0  0
    3.7374    1.3693    2.9765 C   0  0  0  0  0  0  0  0  0  0  0  0
    2.2561   -0.5282    3.1871 C   0  0  0  0  0  0  0  0  0  0  0  0
    3.2182    1.6357    1.7084 C   0  0  0  0  0  0  0  0  0  0  0  0
    1.7340   -0.2650    1.9189 C   0  0  0  0  0  0  0  0  0  0  0  0
    0.5646   -2.2945   -2.5609 C   0  0  0  0  0  0  0  0  0  0  0  0
   -0.3064   -1.2044   -2.4974 C   0  0  0  0  0  0  0  0  0  0  0  0
   -3.1713    0.0618   -1.4535 C   0  0  0  0  0  0  0  0  0  0  0  0
   -3.3252   -0.0603    0.0735 C   0  0  0  0  0  0  0  0  0  0  0  0
    2.1474   -1.1159   -1.1671 C   0  0  0  0  0  0  0  0  0  0  0  0
    1.0319    2.7485   -1.8128 C   0  0  0  0  0  0  0  0  0  0  0  0
    2.2245    0.8108    1.1678 C   0  0  0  0  0  0  0  0  0  0  0  0
    1.7871   -2.2441   -1.8992 C   0  0  0  0  0  0  0  0  0  0  0  0
    1.2691   -0.0225   -1.0739 C   0  0  0  0  0  0  0  0  0  0  0  0
    0.0365   -0.0656   -1.7514 C   0  0  0  0  0  0  0  0  0  0  0  0
   -2.2032    1.1374   -1.8228 C   0  0  0  0  0  0  0  0  0  0  0  0
   -0.3979    2.3681   -1.8732 C   0  0  0  0  0  0  0  0  0  0  0  0
    1.6813    1.1201   -0.1957 C   0  0  0  0  0  0  0  0  0  0  0  0
    2.8629   -3.5824   -1.9918 Cl  0  0  0  0  0  0  0  0  0  0  0  0
    1.6049    2.3656   -0.5271 N   0  0  0  0  0  0  0  0  0  0  0  0
   -2.5565    2.3825   -2.0815 N   0  0  0  0  0  0  0  0  0  0  0  0
   -1.4274    3.1534   -2.1071 N   0  0  0  0  0  0  0  0  0  0  0  0
   -2.1830   -0.7293    0.7368 N   0  0  0  0  0  0  0  0  0  0  0  0
   -0.8212    1.0597   -1.7769 N   0  0  0  0  0  0  0  0  0  0  0  0
   -1.3428   -0.8780    2.6778 H   0  0  0  0  0  0  0  0  0  0  0  0
   -2.0247    0.6942    2.2952 H   0  0  0  0  0  0  0  0  0  0  0  0
   -3.1062   -0.6697    2.6640 H   0  0  0  0  0  0  0  0  0  0  0  0
   -3.1624   -2.6018    1.0545 H   0  0  0  0  0  0  0  0  0  0  0  0
   -2.2498   -2.4836   -0.4617 H   0  0  0  0  0  0  0  0  0  0  0  0
   -1.3872   -2.6604    1.0534 H   0  0  0  0  0  0  0  0  0  0  0  0
    3.6619    0.0828    4.7020 H   0  0  0  0  0  0  0  0  0  0  0  0
    4.5097    2.0123    3.3913 H   0  0  0  0  0  0  0  0  0  0  0  0
    1.8742   -1.3627    3.7697 H   0  0  0  0  0  0  0  0  0  0  0  0
    3.5891    2.4890    1.1448 H   0  0  0  0  0  0  0  0  0  0  0  0
    0.9339   -0.8948    1.5396 H   0  0  0  0  0  0  0  0  0  0  0  0
    0.2937   -3.1678   -3.1498 H   0  0  0  0  0  0  0  0  0  0  0  0
   -1.2148   -1.2457   -3.0928 H   0  0  0  0  0  0  0  0  0  0  0  0
   -2.9416   -0.8993   -1.9135 H   0  0  0  0  0  0  0  0  0  0  0  0
   -4.1497    0.3472   -1.8632 H   0  0  0  0  0  0  0  0  0  0  0  0
   -3.4462    0.9540    0.4790 H   0  0  0  0  0  0  0  0  0  0  0  0
   -4.2573   -0.5937    0.3028 H   0  0  0  0  0  0  0  0  0  0  0  0
    3.1130   -1.0929   -0.6660 H   0  0  0  0  0  0  0  0  0  0  0  0
    1.1190    3.8361   -1.9138 H   0  0  0  0  0  0  0  0  0  0  0  0
    1.5992    2.3174   -2.6463 H   0  0  0  0  0  0  0  0  0  0  0  0
  1 25  1  0
  2 25  1  0
  3  4  2  0
  3  5  1  0
  4  6  1  0
  5  7  2  0
  6 14  2  0
  7 14  1  0
  8  9  2  0
  8 15  1  0
  9 17  1  0
 10 11  1  0
 10 18  1  0
 11 25  1  0
 12 15  2  0
 12 16  1  0
 13 19  1  0
 13 22  1  0
 14 20  1  0
 15 21  1  0
 16 17  2  0
 16 20  1  0
 17 26  1  0
 18 23  2  0
 18 26  1  0
 19 24  2  0
 19 26  1  0
 20 22  2  0
 23 24  1  0
  1 27  1  0
  1 28  1  0
  1 29  1  0
  2 30  1  0
  2 31  1  0
  2 32  1  0
  3 33  1  0
  4 34  1  0
  5 35  1  0
  6 36  1  0
  7 37  1  0
  8 38  1  0
  9 39  1  0
 10 40  1  0
 10 41  1  0
 11 42  1  0
 11 43  1  0
 12 44  1  0
 13 45  1  0
 13 46  1  0
M  END
