
     RDKit          3D

 51 55  0  0  0  0  0  0  0  0999 V2000
    5.9197    1.5574    1.2432 C   0  0  0  0  0  0  0  0  0  0  0  0
   -4.0545    4.2611   -0.3309 C   0  0  0  0  0  0  0  0  0  0  0  0
   -2.4197    2.6184   -1.1029 C   0  0  0  0  0  0  0  0  0  0  0  0
   -5.1501    4.5446    0.4673 C   0  0  0  0  0  0  0  0  0  0  0  0
   -1.9307    1.3181   -1.0522 C   0  0  0  0  0  0  0  0  0  0  0  0
    4.1389    1.7775   -0.4048 C   0  0  0  0  0  0  0  0  0  0  0  0
    3.8542    0.3460    1.5750 C   0  0  0  0  0  0  0  0  0  0  0  0
    3.4718    0.5871   -1.1194 C   0  0  0  0  0  0  0  0  0  0  0  0
    2.4114    0.1343    1.0856 C   0  0  0  0  0  0  0  0  0  0  0  0
   -1.3742   -5.8595   -0.0049 C   0  0  0  0  0  0  0  0  0  0  0  0
    0.0810   -5.4235   -0.0907 C   0  0  0  0  0  0  0  0  0  0  0  0
   -3.5209    2.9645   -0.3200 C   0  0  0  0  0  0  0  0  0  0  0  0
   -5.6538    3.5143    1.2343 C   0  0  0  0  0  0  0  0  0  0  0  0
   -2.5478    0.3900   -0.2197 C   0  0  0  0  0  0  0  0  0  0  0  0
   -1.9180   -3.2049    0.3166 C   0  0  0  0  0  0  0  0  0  0  0  0
   -0.8977   -2.8782   -0.4800 C   0  0  0  0  0  0  0  0  0  0  0  0
   -4.1056    1.9804    0.4966 C   0  0  0  0  0  0  0  0  0  0  0  0
   -2.6919   -1.9590    0.5794 C   0  0  0  0  0  0  0  0  0  0  0  0
   -0.8935   -1.4096   -0.8070 C   0  0  0  0  0  0  0  0  0  0  0  0
    1.2308   -0.4240   -1.0427 C   0  0  0  0  0  0  0  0  0  0  0  0
   -7.0089    3.7707    2.2549 Cl  0  0  0  0  0  0  0  0  0  0  0  0
   -5.1593    2.2636    1.2609 N   0  0  0  0  0  0  0  0  0  0  0  0
   -3.6161    0.7402    0.5237 N   0  0  0  0  0  0  0  0  0  0  0  0
    4.4776    1.5603    1.0167 N   0  0  0  0  0  0  0  0  0  0  0  0
    2.3256    0.0746   -0.3748 N   0  0  0  0  0  0  0  0  0  0  0  0
   -2.0756   -0.9396   -0.1403 N   0  0  0  0  0  0  0  0  0  0  0  0
   -3.6876   -1.9299    1.2820 O   0  0  0  0  0  0  0  0  0  0  0  0
    1.1396   -0.4869   -2.2619 O   0  0  0  0  0  0  0  0  0  0  0  0
    0.2480   -0.8107   -0.1937 O   0  0  0  0  0  0  0  0  0  0  0  0
   -2.3727   -4.7101    0.9809 S   0  0  0  0  0  0  0  0  0  0  0  0
    0.2941   -3.9482   -1.1326 S   0  0  0  0  0  0  0  0  0  0  0  0
    6.3599    2.5104    0.9296 H   0  0  0  0  0  0  0  0  0  0  0  0
    6.4196    0.7489    0.6978 H   0  0  0  0  0  0  0  0  0  0  0  0
    6.1431    1.4450    2.3100 H   0  0  0  0  0  0  0  0  0  0  0  0
   -3.6232    5.0411   -0.9526 H   0  0  0  0  0  0  0  0  0  0  0  0
   -1.9407    3.3466   -1.7523 H   0  0  0  0  0  0  0  0  0  0  0  0
   -5.5931    5.5332    0.4887 H   0  0  0  0  0  0  0  0  0  0  0  0
   -1.0834    1.0712   -1.6803 H   0  0  0  0  0  0  0  0  0  0  0  0
    5.0116    2.1008   -0.9860 H   0  0  0  0  0  0  0  0  0  0  0  0
    3.4351    2.6194   -0.4295 H   0  0  0  0  0  0  0  0  0  0  0  0
    3.8526    0.4118    2.6692 H   0  0  0  0  0  0  0  0  0  0  0  0
    4.4421   -0.5412    1.3025 H   0  0  0  0  0  0  0  0  0  0  0  0
    3.1658    0.8834   -2.1285 H   0  0  0  0  0  0  0  0  0  0  0  0
    4.1854   -0.2394   -1.2220 H   0  0  0  0  0  0  0  0  0  0  0  0
    2.0082   -0.7921    1.5096 H   0  0  0  0  0  0  0  0  0  0  0  0
    1.7690    0.9595    1.4160 H   0  0  0  0  0  0  0  0  0  0  0  0
   -1.8196   -5.9736   -0.9998 H   0  0  0  0  0  0  0  0  0  0  0  0
   -1.4298   -6.8375    0.4846 H   0  0  0  0  0  0  0  0  0  0  0  0
    0.5066   -5.2366    0.9018 H   0  0  0  0  0  0  0  0  0  0  0  0
    0.6715   -6.2257   -0.5461 H   0  0  0  0  0  0  0  0  0  0  0  0
   -0.9949   -1.2439   -1.8869 H   0  0  0  0  0  0  0  0  0  0  0  0
  1 24  1  0
  2  4  2  0
  2 12  1  0
  3  5  1  0
  3 12  2  0
  4 13  1  0
  5 14  2  0
  6  8  1  0
  6 24  1  0
  7  9  1  0
  7 24  1  0
  8 25  1  0
  9 25  1  0
 10 11  1  0
 10 30  1  0
 11 31  1  0
 12 17  1  0
 13 21  1  0
 13 22  2  0
 14 23  1  0
 14 26  1  0
 15 16  2  0
 15 18  1  0
 15 30  1  0
 16 19  1  0
 16 31  1  0
 17 22  1  0
 17 23  2  0
 18 26  1  0
 18 27  2  0
 19 26  1  0
 19 29  1  0
 20 25  1  0
 20 28  2  0
 20 29  1  0
  1 32  1  0
  1 33  1  0
  1 34  1  0
  2 35  1  0
  3 36  1  0
  4 37  1  0
  5 38  1  0
  6 39  1  0
  6 40  1  0
  7 41  1  0
  7 42  1  0
  8 43  1  0
  8 44  1  0
  9 45  1  0
  9 46  1  0
 10 47  1  0
 10 48  1  0
 11 49  1  0
 11 50  1  0
 19 51  1  0
M  END
