
     RDKit          3D

 46 48  0  0  0  0  0  0  0  0999 V2000
   -6.8684    1.8763    0.0068 C   0  0  0  0  0  0  0  0  0  0  0  0
   -5.5880    1.0666   -0.1308 C   0  0  0  0  0  0  0  0  0  0  0  0
   -4.4958    1.5883    0.8037 C   0  0  0  0  0  0  0  0  0  0  0  0
    6.4981    2.4597    0.8509 C   0  0  0  0  0  0  0  0  0  0  0  0
    5.2813    2.2519    1.4999 C   0  0  0  0  0  0  0  0  0  0  0  0
    7.0034    1.4888   -0.0130 C   0  0  0  0  0  0  0  0  0  0  0  0
   -0.3713   -3.9944   -0.9306 C   0  0  0  0  0  0  0  0  0  0  0  0
   -1.7071   -3.5990   -1.1138 C   0  0  0  0  0  0  0  0  0  0  0  0
   -3.2245    0.7364    0.7834 C   0  0  0  0  0  0  0  0  0  0  0  0
    4.5654    1.0718    1.2849 C   0  0  0  0  0  0  0  0  0  0  0  0
    6.2887    0.3090   -0.2314 C   0  0  0  0  0  0  0  0  0  0  0  0
    0.6143   -3.0548   -0.6169 C   0  0  0  0  0  0  0  0  0  0  0  0
   -2.0808   -2.2573   -0.9881 C   0  0  0  0  0  0  0  0  0  0  0  0
   -2.4875    0.7790   -0.5567 C   0  0  0  0  0  0  0  0  0  0  0  0
    5.0611    0.0973    0.4121 C   0  0  0  0  0  0  0  0  0  0  0  0
    0.2312   -1.7306   -0.4955 C   0  0  0  0  0  0  0  0  0  0  0  0
   -1.0968   -1.3327   -0.6794 C   0  0  0  0  0  0  0  0  0  0  0  0
    0.9906   -0.5184   -0.1740 C   0  0  0  0  0  0  0  0  0  0  0  0
    4.3226   -1.1616    0.1830 C   0  0  0  0  0  0  0  0  0  0  0  0
   -0.0268    0.6301   -0.1662 C   0  0  0  0  0  0  0  0  0  0  0  0
    2.2425   -0.2999    0.0751 N   0  0  0  0  0  0  0  0  0  0  0  0
    3.0609   -1.4166    0.0512 N   0  0  0  0  0  0  0  0  0  0  0  0
   -1.2383    0.0534   -0.5058 N   0  0  0  0  0  0  0  0  0  0  0  0
    5.1690   -2.2095    0.1290 O   0  0  0  0  0  0  0  0  0  0  0  0
    0.2224    1.7863    0.1041 O   0  0  0  0  0  0  0  0  0  0  0  0
   -7.2597    1.8218    1.0277 H   0  0  0  0  0  0  0  0  0  0  0  0
   -6.6951    2.9287   -0.2396 H   0  0  0  0  0  0  0  0  0  0  0  0
   -7.6356    1.4901   -0.6716 H   0  0  0  0  0  0  0  0  0  0  0  0
   -5.8016    0.0156    0.0951 H   0  0  0  0  0  0  0  0  0  0  0  0
   -5.2539    1.1152   -1.1726 H   0  0  0  0  0  0  0  0  0  0  0  0
   -4.2490    2.6251    0.5446 H   0  0  0  0  0  0  0  0  0  0  0  0
   -4.8809    1.6032    1.8310 H   0  0  0  0  0  0  0  0  0  0  0  0
    7.0520    3.3798    1.0188 H   0  0  0  0  0  0  0  0  0  0  0  0
    4.8850    3.0086    2.1722 H   0  0  0  0  0  0  0  0  0  0  0  0
    7.9524    1.6500   -0.5176 H   0  0  0  0  0  0  0  0  0  0  0  0
   -0.1024   -5.0440   -1.0326 H   0  0  0  0  0  0  0  0  0  0  0  0
   -2.4587   -4.3479   -1.3563 H   0  0  0  0  0  0  0  0  0  0  0  0
   -3.4715   -0.2997    1.0450 H   0  0  0  0  0  0  0  0  0  0  0  0
   -2.5537    1.0992    1.5728 H   0  0  0  0  0  0  0  0  0  0  0  0
    3.6214    0.9212    1.8024 H   0  0  0  0  0  0  0  0  0  0  0  0
    6.6899   -0.4421   -0.9070 H   0  0  0  0  0  0  0  0  0  0  0  0
    1.6417   -3.3658   -0.4733 H   0  0  0  0  0  0  0  0  0  0  0  0
   -3.1162   -1.9692   -1.1314 H   0  0  0  0  0  0  0  0  0  0  0  0
   -3.0980    0.3748   -1.3701 H   0  0  0  0  0  0  0  0  0  0  0  0
   -2.2632    1.8221   -0.8104 H   0  0  0  0  0  0  0  0  0  0  0  0
    4.6309   -3.0068    0.0014 H   0  0  0  0  0  0  0  0  0  0  0  0
  1  2  1  0
  2  3  1  0
  3  9  1  0
  4  5  2  0
  4  6  1  0
  5 10  1  0
  6 11  2  0
  7  8  2  0
  7 12  1  0
  8 13  1  0
  9 14  1  0
 10 15  2  0
 11 15  1  0
 12 16  2  0
 13 17  2  0
 14 23  1  0
 15 19  1  0
 16 17  1  0
 16 18  1  0
 17 23  1  0
 18 20  1  0
 18 21  2  3
 19 22  2  3
 19 24  1  0
 20 23  1  0
 20 25  2  0
 21 22  1  0
  1 26  1  0
  1 27  1  0
  1 28  1  0
  2 29  1  0
  2 30  1  0
  3 31  1  0
  3 32  1  0
  4 33  1  0
  5 34  1  0
  6 35  1  0
  7 36  1  0
  8 37  1  0
  9 38  1  0
  9 39  1  0
 10 40  1  0
 11 41  1  0
 12 42  1  0
 13 43  1  0
 14 44  1  0
 14 45  1  0
 24 46  1  0
M  END
