
     RDKit          3D

 46 49  0  0  0  0  0  0  0  0999 V2000
   -4.1446   -1.9848    1.0011 C   0  0  0  0  0  0  0  0  0  0  0  0
   -2.2904    3.8639   -0.0508 C   0  0  0  0  0  0  0  0  0  0  0  0
    5.7749    1.1951   -0.9304 C   0  0  0  0  0  0  0  0  0  0  0  0
    5.1645    0.4651   -1.9458 C   0  0  0  0  0  0  0  0  0  0  0  0
    5.0810    1.4600    0.2513 C   0  0  0  0  0  0  0  0  0  0  0  0
    3.8592   -0.0015   -1.7815 C   0  0  0  0  0  0  0  0  0  0  0  0
    3.0555    1.2569    1.6112 C   0  0  0  0  0  0  0  0  0  0  0  0
    1.7493    0.7901    1.7761 C   0  0  0  0  0  0  0  0  0  0  0  0
   -1.9643   -2.5437   -1.0742 C   0  0  0  0  0  0  0  0  0  0  0  0
   -2.6145   -1.2216   -1.4627 C   0  0  0  0  0  0  0  0  0  0  0  0
    1.8318   -0.2063   -0.4174 C   0  0  0  0  0  0  0  0  0  0  0  0
   -0.4180   -1.9793    0.8632 C   0  0  0  0  0  0  0  0  0  0  0  0
    3.7674    0.9971    0.4315 C   0  0  0  0  0  0  0  0  0  0  0  0
    3.1473    0.2559   -0.5982 C   0  0  0  0  0  0  0  0  0  0  0  0
    1.1224    0.0482    0.7682 C   0  0  0  0  0  0  0  0  0  0  0  0
   -1.8165   -2.4768    0.4519 C   0  0  0  0  0  0  0  0  0  0  0  0
   -0.3103   -0.4343    0.9631 C   0  0  0  0  0  0  0  0  0  0  0  0
   -2.6472   -0.4196   -0.1563 C   0  0  0  0  0  0  0  0  0  0  0  0
   -1.3016    0.3246    0.0420 C   0  0  0  0  0  0  0  0  0  0  0  0
   -1.5961    1.7162    0.5795 C   0  0  0  0  0  0  0  0  0  0  0  0
   -2.7863   -1.4598    0.8849 N   0  0  0  0  0  0  0  0  0  0  0  0
   -1.5034    2.0756    1.7448 O   0  0  0  0  0  0  0  0  0  0  0  0
   -2.0005    2.5233   -0.4484 O   0  0  0  0  0  0  0  0  0  0  0  0
   -4.5224   -2.4471    0.0836 H   0  0  0  0  0  0  0  0  0  0  0  0
   -4.1866   -2.7360    1.7976 H   0  0  0  0  0  0  0  0  0  0  0  0
   -4.8345   -1.1839    1.2885 H   0  0  0  0  0  0  0  0  0  0  0  0
   -3.1198    3.8806    0.6631 H   0  0  0  0  0  0  0  0  0  0  0  0
   -1.4010    4.3392    0.3745 H   0  0  0  0  0  0  0  0  0  0  0  0
   -2.5893    4.4238   -0.9412 H   0  0  0  0  0  0  0  0  0  0  0  0
    6.7911    1.5592   -1.0561 H   0  0  0  0  0  0  0  0  0  0  0  0
    5.7035    0.2578   -2.8665 H   0  0  0  0  0  0  0  0  0  0  0  0
    5.5735    2.0325    1.0341 H   0  0  0  0  0  0  0  0  0  0  0  0
    3.3999   -0.5705   -2.5864 H   0  0  0  0  0  0  0  0  0  0  0  0
    3.5114    1.8308    2.4149 H   0  0  0  0  0  0  0  0  0  0  0  0
    1.2204    1.0203    2.6999 H   0  0  0  0  0  0  0  0  0  0  0  0
   -2.6219   -3.3718   -1.3636 H   0  0  0  0  0  0  0  0  0  0  0  0
   -1.0089   -2.6857   -1.5896 H   0  0  0  0  0  0  0  0  0  0  0  0
   -3.6327   -1.4046   -1.8275 H   0  0  0  0  0  0  0  0  0  0  0  0
   -2.0720   -0.7211   -2.2710 H   0  0  0  0  0  0  0  0  0  0  0  0
    1.3553   -0.7714   -1.2160 H   0  0  0  0  0  0  0  0  0  0  0  0
    0.3360   -2.4061    0.1920 H   0  0  0  0  0  0  0  0  0  0  0  0
   -0.1795   -2.3858    1.8565 H   0  0  0  0  0  0  0  0  0  0  0  0
   -1.9862   -3.4610    0.9043 H   0  0  0  0  0  0  0  0  0  0  0  0
   -0.5859   -0.2045    2.0036 H   0  0  0  0  0  0  0  0  0  0  0  0
   -3.4908    0.2808   -0.1545 H   0  0  0  0  0  0  0  0  0  0  0  0
   -0.8192    0.4803   -0.9328 H   0  0  0  0  0  0  0  0  0  0  0  0
  1 21  1  0
  2 23  1  0
  3  4  2  0
  3  5  1  0
  4  6  1  0
  5 13  2  0
  6 14  2  0
  7  8  2  0
  7 13  1  0
  8 15  1  0
  9 10  1  0
  9 16  1  0
 10 18  1  0
 11 14  1  0
 11 15  2  0
 12 16  1  0
 12 17  1  0
 13 14  1  0
 15 17  1  0
 16 21  1  0
 17 19  1  0
 18 19  1  0
 18 21  1  0
 19 20  1  0
 20 22  2  0
 20 23  1  0
  1 24  1  0
  1 25  1  0
  1 26  1  0
  2 27  1  0
  2 28  1  0
  2 29  1  0
  3 30  1  0
  4 31  1  0
  5 32  1  0
  6 33  1  0
  7 34  1  0
  8 35  1  0
  9 36  1  0
  9 37  1  0
 10 38  1  0
 10 39  1  0
 11 40  1  0
 12 41  1  0
 12 42  1  0
 16 43  1  0
 17 44  1  0
 18 45  1  0
 19 46  1  0
M  END
