
     RDKit          3D

 50 52  0  0  0  0  0  0  0  0999 V2000
   -4.2554    0.2469    0.1571 C   0  0  0  0  0  0  0  0  0  0  0  0
   -2.5440   -2.6660    0.0021 C   0  0  0  0  0  0  0  0  0  0  0  0
   -3.2784    0.3952    1.3159 C   0  0  0  0  0  0  0  0  0  0  0  0
   -2.5201   -1.9881    1.3649 C   0  0  0  0  0  0  0  0  0  0  0  0
    2.2837   -3.9195    1.4163 C   0  0  0  0  0  0  0  0  0  0  0  0
    2.9731   -2.7094    1.3982 C   0  0  0  0  0  0  0  0  0  0  0  0
    1.4240   -4.2447    0.3697 C   0  0  0  0  0  0  0  0  0  0  0  0
    2.7943   -1.8182    0.3389 C   0  0  0  0  0  0  0  0  0  0  0  0
    1.2443   -3.3541   -0.6905 C   0  0  0  0  0  0  0  0  0  0  0  0
    0.6735    4.5118   -0.1160 C   0  0  0  0  0  0  0  0  0  0  0  0
    0.0459    3.2617   -0.1665 C   0  0  0  0  0  0  0  0  0  0  0  0
   -0.8774   -0.1577    0.8905 C   0  0  0  0  0  0  0  0  0  0  0  0
   -0.7764    0.2348   -0.5900 C   0  0  0  0  0  0  0  0  0  0  0  0
    1.7147   -1.1723   -1.8730 C   0  0  0  0  0  0  0  0  0  0  0  0
    2.7071    3.6018   -1.1325 C   0  0  0  0  0  0  0  0  0  0  0  0
    1.9081   -2.1184   -0.7074 C   0  0  0  0  0  0  0  0  0  0  0  0
    1.9833    4.6757   -0.5925 C   0  0  0  0  0  0  0  0  0  0  0  0
    2.0799    2.3498   -1.1832 C   0  0  0  0  0  0  0  0  0  0  0  0
    0.7819    2.1998   -0.7086 C   0  0  0  0  0  0  0  0  0  0  0  0
    1.6039    0.2739   -1.4878 C   0  0  0  0  0  0  0  0  0  0  0  0
    2.5656    1.1631   -1.6573 N   0  0  0  0  0  0  0  0  0  0  0  0
   -2.1939   -0.5720    1.3643 N   0  0  0  0  0  0  0  0  0  0  0  0
    0.4975    0.8631   -0.9107 N   0  0  0  0  0  0  0  0  0  0  0  0
    2.6137    5.9999   -0.5261 N   0  0  0  0  0  4  0  0  0  0  0  0
    3.7761    6.1100   -0.9407 O   0  0  0  0  0  1  0  0  0  0  0  0
    1.9450    6.9333   -0.0585 O   0  0  0  0  0  0  0  0  0  0  0  0
   -3.7484    0.2672   -0.8114 H   0  0  0  0  0  0  0  0  0  0  0  0
   -4.9753    1.0721    0.1719 H   0  0  0  0  0  0  0  0  0  0  0  0
   -4.8272   -0.6832    0.2323 H   0  0  0  0  0  0  0  0  0  0  0  0
   -3.2447   -2.1888   -0.6872 H   0  0  0  0  0  0  0  0  0  0  0  0
   -2.8513   -3.7112    0.1145 H   0  0  0  0  0  0  0  0  0  0  0  0
   -1.5558   -2.6674   -0.4611 H   0  0  0  0  0  0  0  0  0  0  0  0
   -2.8743    1.4153    1.3096 H   0  0  0  0  0  0  0  0  0  0  0  0
   -3.8469    0.3210    2.2515 H   0  0  0  0  0  0  0  0  0  0  0  0
   -1.7915   -2.5134    1.9954 H   0  0  0  0  0  0  0  0  0  0  0  0
   -3.4871   -2.1472    1.8584 H   0  0  0  0  0  0  0  0  0  0  0  0
    2.4268   -4.6139    2.2400 H   0  0  0  0  0  0  0  0  0  0  0  0
    3.6572   -2.4602    2.2054 H   0  0  0  0  0  0  0  0  0  0  0  0
    0.8989   -5.1963    0.3755 H   0  0  0  0  0  0  0  0  0  0  0  0
    3.3557   -0.8846    0.3351 H   0  0  0  0  0  0  0  0  0  0  0  0
    0.5802   -3.6349   -1.5050 H   0  0  0  0  0  0  0  0  0  0  0  0
    0.1220    5.3528    0.3027 H   0  0  0  0  0  0  0  0  0  0  0  0
   -0.9656    3.1319    0.2049 H   0  0  0  0  0  0  0  0  0  0  0  0
   -0.1418   -0.9394    1.1139 H   0  0  0  0  0  0  0  0  0  0  0  0
   -0.5599    0.6920    1.5093 H   0  0  0  0  0  0  0  0  0  0  0  0
   -0.9112   -0.6268   -1.2477 H   0  0  0  0  0  0  0  0  0  0  0  0
   -1.5493    0.9610   -0.8627 H   0  0  0  0  0  0  0  0  0  0  0  0
    0.8281   -1.4555   -2.4529 H   0  0  0  0  0  0  0  0  0  0  0  0
    2.5712   -1.2963   -2.5483 H   0  0  0  0  0  0  0  0  0  0  0  0
    3.7201    3.7057   -1.5065 H   0  0  0  0  0  0  0  0  0  0  0  0
  1  3  1  0
  2  4  1  0
  3 22  1  0
  4 22  1  0
  5  6  2  0
  5  7  1  0
  6  8  1  0
  7  9  2  0
  8 16  2  0
  9 16  1  0
 10 11  2  0
 10 17  1  0
 11 19  1  0
 12 13  1  0
 12 22  1  0
 13 23  1  0
 14 16  1  0
 14 20  1  0
 15 17  2  0
 15 18  1  0
 17 24  1  0
 18 19  2  0
 18 21  1  0
 19 23  1  0
 20 21  2  0
 20 23  1  0
 24 25  1  0
 24 26  2  0
  1 27  1  0
  1 28  1  0
  1 29  1  0
  2 30  1  0
  2 31  1  0
  2 32  1  0
  3 33  1  0
  3 34  1  0
  4 35  1  0
  4 36  1  0
  5 37  1  0
  6 38  1  0
  7 39  1  0
  8 40  1  0
  9 41  1  0
 10 42  1  0
 11 43  1  0
 12 44  1  0
 12 45  1  0
 13 46  1  0
 13 47  1  0
 14 48  1  0
 14 49  1  0
 15 50  1  0
M  CHG  2  24   1  25  -1
M  END
