
     RDKit          3D

 49 53  0  0  0  0  0  0  0  0999 V2000
   -4.7434    0.1880    2.9204 C   0  0  0  0  0  0  0  0  0  0  0  0
    7.4166    0.6321   -0.1875 C   0  0  0  0  0  0  0  0  0  0  0  0
   -3.3262    0.0535    2.3779 C   0  0  0  0  0  0  0  0  0  0  0  0
    4.9236   -0.6837   -0.4557 C   0  0  0  0  0  0  0  0  0  0  0  0
    3.6631   -1.2907   -0.5731 C   0  0  0  0  0  0  0  0  0  0  0  0
    0.4399   -2.1301   -0.6926 C   0  0  0  0  0  0  0  0  0  0  0  0
   -0.8100   -1.9171   -1.5665 C   0  0  0  0  0  0  0  0  0  0  0  0
   -3.8839    0.7418   -0.0272 C   0  0  0  0  0  0  0  0  0  0  0  0
   -1.6446    1.4085   -0.9486 C   0  0  0  0  0  0  0  0  0  0  0  0
    3.8922    1.4110    0.1862 C   0  0  0  0  0  0  0  0  0  0  0  0
   -2.8419   -0.5979   -1.8560 C   0  0  0  0  0  0  0  0  0  0  0  0
   -3.0328    0.8294   -1.3053 C   0  0  0  0  0  0  0  0  0  0  0  0
   -3.2982   -0.3508    0.8929 C   0  0  0  0  0  0  0  0  0  0  0  0
    5.0395    0.6536   -0.0802 C   0  0  0  0  0  0  0  0  0  0  0  0
    2.4981   -0.5433   -0.3091 C   0  0  0  0  0  0  0  0  0  0  0  0
    1.0977   -0.8309   -0.3321 C   0  0  0  0  0  0  0  0  0  0  0  0
   -1.0343    0.5938    0.2125 C   0  0  0  0  0  0  0  0  0  0  0  0
    2.6421    0.7908    0.0649 C   0  0  0  0  0  0  0  0  0  0  0  0
    0.4347    0.3290    0.0365 C   0  0  0  0  0  0  0  0  0  0  0  0
   -1.8663   -0.7129    0.3833 C   0  0  0  0  0  0  0  0  0  0  0  0
    1.3803    1.2963    0.2664 N   0  0  0  0  0  0  0  0  0  0  0  0
   -2.0424   -1.4178   -0.9181 N   0  0  0  0  0  0  0  0  0  0  0  0
    6.2133    1.3459    0.0651 O   0  0  0  0  0  0  0  0  0  0  0  0
   -5.2948    0.9834    2.4103 H   0  0  0  0  0  0  0  0  0  0  0  0
   -4.7157    0.4310    3.9875 H   0  0  0  0  0  0  0  0  0  0  0  0
   -5.2991   -0.7476    2.8016 H   0  0  0  0  0  0  0  0  0  0  0  0
    7.5348   -0.2030    0.5110 H   0  0  0  0  0  0  0  0  0  0  0  0
    7.4620    0.2895   -1.2266 H   0  0  0  0  0  0  0  0  0  0  0  0
    8.2527    1.3197   -0.0276 H   0  0  0  0  0  0  0  0  0  0  0  0
   -2.8007   -0.7058    2.9694 H   0  0  0  0  0  0  0  0  0  0  0  0
   -2.8002    1.0008    2.5372 H   0  0  0  0  0  0  0  0  0  0  0  0
    5.7947   -1.2944   -0.6674 H   0  0  0  0  0  0  0  0  0  0  0  0
    3.5916   -2.3340   -0.8655 H   0  0  0  0  0  0  0  0  0  0  0  0
    1.1478   -2.7428   -1.2645 H   0  0  0  0  0  0  0  0  0  0  0  0
    0.2003   -2.7012    0.2114 H   0  0  0  0  0  0  0  0  0  0  0  0
   -1.0699   -2.8800   -2.0236 H   0  0  0  0  0  0  0  0  0  0  0  0
   -0.5078   -1.2608   -2.3944 H   0  0  0  0  0  0  0  0  0  0  0  0
   -3.9059    1.7203    0.4675 H   0  0  0  0  0  0  0  0  0  0  0  0
   -4.9212    0.4895   -0.2787 H   0  0  0  0  0  0  0  0  0  0  0  0
   -1.7416    2.4589   -0.6472 H   0  0  0  0  0  0  0  0  0  0  0  0
   -1.0009    1.3967   -1.8374 H   0  0  0  0  0  0  0  0  0  0  0  0
    3.9781    2.4523    0.4794 H   0  0  0  0  0  0  0  0  0  0  0  0
   -2.4004   -0.5432   -2.8585 H   0  0  0  0  0  0  0  0  0  0  0  0
   -3.8195   -1.0784   -1.9858 H   0  0  0  0  0  0  0  0  0  0  0  0
   -3.5268    1.4645   -2.0484 H   0  0  0  0  0  0  0  0  0  0  0  0
   -3.9227   -1.2520    0.7998 H   0  0  0  0  0  0  0  0  0  0  0  0
   -1.1289    1.1890    1.1298 H   0  0  0  0  0  0  0  0  0  0  0  0
   -1.4102   -1.3889    1.1160 H   0  0  0  0  0  0  0  0  0  0  0  0
    1.1867    2.2463    0.5505 H   0  0  0  0  0  0  0  0  0  0  0  0
  1  3  1  0
  2 23  1  0
  3 13  1  0
  4  5  1  0
  4 14  2  0
  5 15  2  0
  6  7  1  0
  6 16  1  0
  7 22  1  0
  8 12  1  0
  8 13  1  0
  9 12  1  0
  9 17  1  0
 10 14  1  0
 10 18  2  0
 11 12  1  0
 11 22  1  0
 13 20  1  0
 14 23  1  0
 15 16  1  0
 15 18  1  0
 16 19  2  0
 17 19  1  0
 17 20  1  0
 18 21  1  0
 19 21  1  0
 20 22  1  0
  1 24  1  0
  1 25  1  0
  1 26  1  0
  2 27  1  0
  2 28  1  0
  2 29  1  0
  3 30  1  0
  3 31  1  0
  4 32  1  0
  5 33  1  0
  6 34  1  0
  6 35  1  0
  7 36  1  0
  7 37  1  0
  8 38  1  0
  8 39  1  0
  9 40  1  0
  9 41  1  0
 10 42  1  0
 11 43  1  0
 11 44  1  0
 12 45  1  0
 13 46  1  0
 17 47  1  0
 20 48  1  0
 21 49  1  0
M  END
