
     RDKit          3D

 48 49  0  0  0  0  0  0  0  0999 V2000
   -4.1202   -2.5781   -0.2760 C   0  0  0  0  0  0  0  0  0  0  0  0
   -4.6300    1.6177    1.6200 C   0  0  0  0  0  0  0  0  0  0  0  0
    0.6375   -0.7817   -2.6599 C   0  0  0  0  0  0  0  0  0  0  0  0
   -4.3233   -1.4401   -1.2652 C   0  0  0  0  0  0  0  0  0  0  0  0
    3.5328   -2.6528    0.6837 C   0  0  0  0  0  0  0  0  0  0  0  0
    4.9180   -2.6221    0.5436 C   0  0  0  0  0  0  0  0  0  0  0  0
    2.8263   -1.4645    0.8750 C   0  0  0  0  0  0  0  0  0  0  0  0
    5.5968   -1.4047    0.5972 C   0  0  0  0  0  0  0  0  0  0  0  0
   -0.1685    2.6407   -0.7658 C   0  0  0  0  0  0  0  0  0  0  0  0
    0.8270    2.3786    0.3779 C   0  0  0  0  0  0  0  0  0  0  0  0
   -2.1214   -0.4306   -1.9375 C   0  0  0  0  0  0  0  0  0  0  0  0
   -2.3737    1.6280   -0.0818 C   0  0  0  0  0  0  0  0  0  0  0  0
    2.6962    1.0399    1.1494 C   0  0  0  0  0  0  0  0  0  0  0  0
   -3.2633   -0.3720   -1.1208 C   0  0  0  0  0  0  0  0  0  0  0  0
   -1.2362    1.5782   -0.9090 C   0  0  0  0  0  0  0  0  0  0  0  0
    3.4914   -0.2262    0.9230 C   0  0  0  0  0  0  0  0  0  0  0  0
    4.8843   -0.2187    0.7893 C   0  0  0  0  0  0  0  0  0  0  0  0
   -3.3809    0.6603   -0.1740 C   0  0  0  0  0  0  0  0  0  0  0  0
   -1.1069    0.5230   -1.8204 C   0  0  0  0  0  0  0  0  0  0  0  0
    1.6390    1.1836    0.1469 N   0  0  0  0  0  0  0  0  0  0  0  0
    5.5555    0.9708    0.8502 O   0  0  0  0  0  0  0  0  0  0  0  0
   -4.5129    0.6368    0.5985 O   0  0  0  0  0  0  0  0  0  0  0  0
    0.0053    0.4969   -2.6226 O   0  0  0  0  0  0  0  0  0  0  0  0
   -3.1444   -3.0556   -0.4165 H   0  0  0  0  0  0  0  0  0  0  0  0
   -4.1741   -2.2240    0.7587 H   0  0  0  0  0  0  0  0  0  0  0  0
   -4.8935   -3.3405   -0.4133 H   0  0  0  0  0  0  0  0  0  0  0  0
   -4.6929    2.6243    1.1941 H   0  0  0  0  0  0  0  0  0  0  0  0
   -3.8083    1.5410    2.3396 H   0  0  0  0  0  0  0  0  0  0  0  0
   -5.5626    1.4275    2.1600 H   0  0  0  0  0  0  0  0  0  0  0  0
    0.1540   -1.4255   -3.4011 H   0  0  0  0  0  0  0  0  0  0  0  0
    1.6751   -0.6312   -2.9731 H   0  0  0  0  0  0  0  0  0  0  0  0
    0.6504   -1.2662   -1.6770 H   0  0  0  0  0  0  0  0  0  0  0  0
   -4.3077   -1.8398   -2.2868 H   0  0  0  0  0  0  0  0  0  0  0  0
   -5.3207   -1.0029   -1.1377 H   0  0  0  0  0  0  0  0  0  0  0  0
    3.0000   -3.5991    0.6464 H   0  0  0  0  0  0  0  0  0  0  0  0
    5.4689   -3.5471    0.3956 H   0  0  0  0  0  0  0  0  0  0  0  0
    1.7430   -1.4968    0.9829 H   0  0  0  0  0  0  0  0  0  0  0  0
    6.6768   -1.4003    0.4896 H   0  0  0  0  0  0  0  0  0  0  0  0
   -0.6629    3.6047   -0.5854 H   0  0  0  0  0  0  0  0  0  0  0  0
    0.3708    2.7746   -1.7119 H   0  0  0  0  0  0  0  0  0  0  0  0
    1.4774    3.2580    0.4614 H   0  0  0  0  0  0  0  0  0  0  0  0
    0.2838    2.2762    1.3250 H   0  0  0  0  0  0  0  0  0  0  0  0
   -2.0389   -1.2218   -2.6770 H   0  0  0  0  0  0  0  0  0  0  0  0
   -2.4469    2.4422    0.6317 H   0  0  0  0  0  0  0  0  0  0  0  0
    2.2633    0.9888    2.1564 H   0  0  0  0  0  0  0  0  0  0  0  0
    3.3469    1.9208    1.1210 H   0  0  0  0  0  0  0  0  0  0  0  0
    2.0652    1.2310   -0.7782 H   0  0  0  0  0  0  0  0  0  0  0  0
    6.5047    0.7983    0.7388 H   0  0  0  0  0  0  0  0  0  0  0  0
  1  4  1  0
  2 22  1  0
  3 23  1  0
  4 14  1  0
  5  6  2  0
  5  7  1  0
  6  8  1  0
  7 16  2  0
  8 17  2  0
  9 10  1  0
  9 15  1  0
 10 20  1  0
 11 14  2  0
 11 19  1  0
 12 15  1  0
 12 18  2  0
 13 16  1  0
 13 20  1  0
 14 18  1  0
 15 19  2  0
 16 17  1  0
 17 21  1  0
 18 22  1  0
 19 23  1  0
  1 24  1  0
  1 25  1  0
  1 26  1  0
  2 27  1  0
  2 28  1  0
  2 29  1  0
  3 30  1  0
  3 31  1  0
  3 32  1  0
  4 33  1  0
  4 34  1  0
  5 35  1  0
  6 36  1  0
  7 37  1  0
  8 38  1  0
  9 39  1  0
  9 40  1  0
 10 41  1  0
 10 42  1  0
 11 43  1  0
 12 44  1  0
 13 45  1  0
 13 46  1  0
 20 47  1  0
 21 48  1  0
M  END
