
     RDKit          3D

 43 46  0  0  0  0  0  0  0  0999 V2000
    4.3243    3.3043   -0.7843 C   0  0  0  0  0  0  0  0  0  0  0  0
    4.6493    1.9265   -1.3277 C   0  0  0  0  0  0  0  0  0  0  0  0
   -4.2126    1.2603   -1.2746 C   0  0  0  0  0  0  0  0  0  0  0  0
   -4.6453    2.3549   -0.5254 C   0  0  0  0  0  0  0  0  0  0  0  0
   -3.0756    0.5463   -0.8849 C   0  0  0  0  0  0  0  0  0  0  0  0
   -3.9421    2.7370    0.6157 C   0  0  0  0  0  0  0  0  0  0  0  0
   -1.7318   -3.9843    1.8161 C   0  0  0  0  0  0  0  0  0  0  0  0
    0.0085    0.8066    0.5996 C   0  0  0  0  0  0  0  0  0  0  0  0
   -0.6034   -3.6621    1.0616 C   0  0  0  0  0  0  0  0  0  0  0  0
    1.3379    0.2036    0.9002 C   0  0  0  0  0  0  0  0  0  0  0  0
   -2.3481   -1.6536    1.8615 C   0  0  0  0  0  0  0  0  0  0  0  0
    1.5134   -2.9541   -0.8631 C   0  0  0  0  0  0  0  0  0  0  0  0
   -2.5953   -2.9776    2.2200 C   0  0  0  0  0  0  0  0  0  0  0  0
   -1.1600    0.1396    0.6610 C   0  0  0  0  0  0  0  0  0  0  0  0
   -2.3577    0.9239    0.2590 C   0  0  0  0  0  0  0  0  0  0  0  0
   -1.2215   -1.2941    1.0884 C   0  0  0  0  0  0  0  0  0  0  0  0
   -2.8095    2.0235    1.0006 C   0  0  0  0  0  0  0  0  0  0  0  0
   -0.3266   -2.3241    0.7064 C   0  0  0  0  0  0  0  0  0  0  0  0
    1.6536   -0.9270   -0.0091 C   0  0  0  0  0  0  0  0  0  0  0  0
    2.6874   -1.1510   -0.9154 C   0  0  0  0  0  0  0  0  0  0  0  0
    3.7780   -0.2584   -1.3365 C   0  0  0  0  0  0  0  0  0  0  0  0
   -3.9835   -3.3672    3.1578 Cl  0  0  0  0  0  0  0  0  0  0  0  0
   -2.1607    2.4055    2.1115 F   0  0  0  0  0  0  0  0  0  0  0  0
    2.5849   -2.4386   -1.4129 N   0  0  0  0  0  0  0  0  0  0  0  0
    0.8712   -2.0713   -0.0266 N   0  0  0  0  0  0  0  0  0  0  0  0
    4.7329   -0.6254   -2.0136 O   0  0  0  0  0  0  0  0  0  0  0  0
    3.6123    1.0305   -0.9133 O   0  0  0  0  0  0  0  0  0  0  0  0
    5.0899    4.0291   -1.0747 H   0  0  0  0  0  0  0  0  0  0  0  0
    3.3532    3.6464   -1.1574 H   0  0  0  0  0  0  0  0  0  0  0  0
    4.2548    3.2810    0.3083 H   0  0  0  0  0  0  0  0  0  0  0  0
    4.6935    1.9620   -2.4220 H   0  0  0  0  0  0  0  0  0  0  0  0
    5.6123    1.5897   -0.9280 H   0  0  0  0  0  0  0  0  0  0  0  0
   -4.7610    0.9609   -2.1650 H   0  0  0  0  0  0  0  0  0  0  0  0
   -5.5303    2.9080   -0.8304 H   0  0  0  0  0  0  0  0  0  0  0  0
   -2.7511   -0.3034   -1.4821 H   0  0  0  0  0  0  0  0  0  0  0  0
   -4.2691    3.5840    1.2107 H   0  0  0  0  0  0  0  0  0  0  0  0
   -1.9204   -5.0181    2.0945 H   0  0  0  0  0  0  0  0  0  0  0  0
    0.0328    1.8498    0.2877 H   0  0  0  0  0  0  0  0  0  0  0  0
    0.0703   -4.4767    0.8039 H   0  0  0  0  0  0  0  0  0  0  0  0
    1.3635   -0.1376    1.9438 H   0  0  0  0  0  0  0  0  0  0  0  0
    2.0941    0.9905    0.8522 H   0  0  0  0  0  0  0  0  0  0  0  0
   -3.0544   -0.8915    2.1878 H   0  0  0  0  0  0  0  0  0  0  0  0
    1.1419   -3.9479   -1.0729 H   0  0  0  0  0  0  0  0  0  0  0  0
  1  2  1  0
  2 27  1  0
  3  4  2  0
  3  5  1  0
  4  6  1  0
  5 15  2  0
  6 17  2  0
  7  9  2  0
  7 13  1  0
  8 10  1  0
  8 14  2  0
  9 18  1  0
 10 19  1  0
 11 13  2  0
 11 16  1  0
 12 24  2  0
 12 25  1  0
 13 22  1  0
 14 15  1  0
 14 16  1  0
 15 17  1  0
 16 18  2  0
 17 23  1  0
 18 25  1  0
 19 20  2  0
 19 25  1  0
 20 21  1  0
 20 24  1  0
 21 26  2  0
 21 27  1  0
  1 28  1  0
  1 29  1  0
  1 30  1  0
  2 31  1  0
  2 32  1  0
  3 33  1  0
  4 34  1  0
  5 35  1  0
  6 36  1  0
  7 37  1  0
  8 38  1  0
  9 39  1  0
 10 40  1  0
 10 41  1  0
 11 42  1  0
 12 43  1  0
M  END
