
     RDKit          3D

 48 50  0  0  0  0  0  0  0  0999 V2000
   -5.4286    1.8158   -0.5151 C   0  0  0  0  0  0  0  0  0  0  0  0
   -3.1984    2.3548    0.4533 C   0  0  0  0  0  0  0  0  0  0  0  0
    0.1039   -3.1765    1.7853 C   0  0  0  0  0  0  0  0  0  0  0  0
    1.4853   -3.2197    1.9495 C   0  0  0  0  0  0  0  0  0  0  0  0
   -0.4705   -2.4061    0.7676 C   0  0  0  0  0  0  0  0  0  0  0  0
    2.3336   -2.5052    1.0996 C   0  0  0  0  0  0  0  0  0  0  0  0
    3.8481    1.6733   -0.3978 C   0  0  0  0  0  0  0  0  0  0  0  0
    5.2806    0.0211    0.6420 C   0  0  0  0  0  0  0  0  0  0  0  0
    4.3927    2.6623    0.4222 C   0  0  0  0  0  0  0  0  0  0  0  0
    5.8234    1.0131    1.4609 C   0  0  0  0  0  0  0  0  0  0  0  0
    3.6929   -0.7283   -1.1844 C   0  0  0  0  0  0  0  0  0  0  0  0
   -4.0662    1.2292   -0.1277 C   0  0  0  0  0  0  0  0  0  0  0  0
    4.2821    0.3401   -0.2930 C   0  0  0  0  0  0  0  0  0  0  0  0
    5.3741    2.3229    1.3444 C   0  0  0  0  0  0  0  0  0  0  0  0
    0.3634   -1.6617   -0.0940 C   0  0  0  0  0  0  0  0  0  0  0  0
    1.7439   -1.7388    0.0833 C   0  0  0  0  0  0  0  0  0  0  0  0
   -3.3586    0.5440   -1.3209 C   0  0  0  0  0  0  0  0  0  0  0  0
    0.1750   -0.7845   -1.2098 C   0  0  0  0  0  0  0  0  0  0  0  0
   -4.2235   -0.5580   -1.9210 C   0  0  0  0  0  0  0  0  0  0  0  0
   -1.0898   -0.3209   -1.8069 C   0  0  0  0  0  0  0  0  0  0  0  0
    5.8970    3.2716    2.1320 F   0  0  0  0  0  0  0  0  0  0  0  0
   -4.2490   -1.7944   -1.5617 N   0  0  0  0  0  0  0  0  0  0  0  0
   -2.1090   -0.0949   -0.8937 N   0  0  0  0  0  0  0  0  0  0  0  0
    1.3575   -0.3739   -1.7020 N   0  0  0  0  0  0  0  0  0  0  0  0
    2.2785   -0.9504   -0.9061 N   0  0  0  0  0  0  0  0  0  0  0  0
   -5.0663   -0.1922   -2.8860 O   0  0  0  0  0  0  0  0  0  0  0  0
   -1.2325   -0.1060   -3.0073 O   0  0  0  0  0  0  0  0  0  0  0  0
   -6.1398    1.0293   -0.7851 H   0  0  0  0  0  0  0  0  0  0  0  0
   -5.8680    2.3675    0.3233 H   0  0  0  0  0  0  0  0  0  0  0  0
   -5.3378    2.5047   -1.3617 H   0  0  0  0  0  0  0  0  0  0  0  0
   -2.9801    3.1155   -0.3042 H   0  0  0  0  0  0  0  0  0  0  0  0
   -2.2463    1.9756    0.8366 H   0  0  0  0  0  0  0  0  0  0  0  0
   -3.7090    2.8471    1.2882 H   0  0  0  0  0  0  0  0  0  0  0  0
   -0.5356   -3.7534    2.4500 H   0  0  0  0  0  0  0  0  0  0  0  0
    1.9126   -3.8254    2.7463 H   0  0  0  0  0  0  0  0  0  0  0  0
   -1.5491   -2.4077    0.6457 H   0  0  0  0  0  0  0  0  0  0  0  0
    3.4095   -2.5517    1.2312 H   0  0  0  0  0  0  0  0  0  0  0  0
    3.0780    1.9452   -1.1196 H   0  0  0  0  0  0  0  0  0  0  0  0
    5.6446   -0.9993    0.7403 H   0  0  0  0  0  0  0  0  0  0  0  0
    4.0576    3.6918    0.3460 H   0  0  0  0  0  0  0  0  0  0  0  0
    6.5941    0.7745    2.1871 H   0  0  0  0  0  0  0  0  0  0  0  0
    4.2053   -1.6890   -1.0600 H   0  0  0  0  0  0  0  0  0  0  0  0
    3.7955   -0.4408   -2.2376 H   0  0  0  0  0  0  0  0  0  0  0  0
   -4.2342    0.4889    0.6660 H   0  0  0  0  0  0  0  0  0  0  0  0
   -3.1325    1.2755   -2.1063 H   0  0  0  0  0  0  0  0  0  0  0  0
   -3.5379   -1.9229   -0.8337 H   0  0  0  0  0  0  0  0  0  0  0  0
   -1.8506   -0.0608    0.0835 H   0  0  0  0  0  0  0  0  0  0  0  0
   -5.5159   -1.0016   -3.1839 H   0  0  0  0  0  0  0  0  0  0  0  0
  1 12  1  0
  2 12  1  0
  3  4  2  0
  3  5  1  0
  4  6  1  0
  5 15  2  0
  6 16  2  0
  7  9  2  0
  7 13  1  0
  8 10  1  0
  8 13  2  0
  9 14  1  0
 10 14  2  0
 11 13  1  0
 11 25  1  0
 12 17  1  0
 14 21  1  0
 15 16  1  0
 15 18  1  0
 16 25  1  0
 17 19  1  0
 17 23  1  0
 18 20  1  0
 18 24  2  0
 19 22  2  3
 19 26  1  0
 20 23  1  0
 20 27  2  0
 24 25  1  0
  1 28  1  0
  1 29  1  0
  1 30  1  0
  2 31  1  0
  2 32  1  0
  2 33  1  0
  3 34  1  0
  4 35  1  0
  5 36  1  0
  6 37  1  0
  7 38  1  0
  8 39  1  0
  9 40  1  0
 10 41  1  0
 11 42  1  0
 11 43  1  0
 12 44  1  0
 17 45  1  0
 22 46  1  0
 23 47  1  0
 26 48  1  0
M  END
