
     RDKit          3D

 50 53  0  0  0  0  0  0  0  0999 V2000
    4.9439   -2.6648   -1.5573 C   0  0  0  0  0  0  0  0  0  0  0  0
    4.0970   -1.5445   -2.1386 C   0  0  0  0  0  0  0  0  0  0  0  0
    5.8567    1.7294   -0.0212 C   0  0  0  0  0  0  0  0  0  0  0  0
    5.3245    0.6363   -0.7135 C   0  0  0  0  0  0  0  0  0  0  0  0
   -1.1309    0.1070   -0.2871 C   0  0  0  0  0  0  0  0  0  0  0  0
   -2.2413   -2.0798    1.6983 C   0  0  0  0  0  0  0  0  0  0  0  0
   -5.7228    1.4502   -1.0858 C   0  0  0  0  0  0  0  0  0  0  0  0
   -0.5358    1.1979    0.6176 C   0  0  0  0  0  0  0  0  0  0  0  0
   -3.3162   -2.5232    2.6867 C   0  0  0  0  0  0  0  0  0  0  0  0
   -4.6420    1.9167   -2.0584 C   0  0  0  0  0  0  0  0  0  0  0  0
    3.7731    1.9986    1.1575 C   0  0  0  0  0  0  0  0  0  0  0  0
    1.7969    0.4945    0.7762 C   0  0  0  0  0  0  0  0  0  0  0  0
    3.2250    0.8970    0.4705 C   0  0  0  0  0  0  0  0  0  0  0  0
    5.0790    2.4074    0.9098 C   0  0  0  0  0  0  0  0  0  0  0  0
   -2.5856   -0.1267    0.0118 C   0  0  0  0  0  0  0  0  0  0  0  0
   -3.0233   -1.0847    0.9227 C   0  0  0  0  0  0  0  0  0  0  0  0
   -4.9473    0.4401   -0.3292 C   0  0  0  0  0  0  0  0  0  0  0  0
    4.0105    0.2140   -0.4797 C   0  0  0  0  0  0  0  0  0  0  0  0
   -5.3707   -0.5224    0.5718 C   0  0  0  0  0  0  0  0  0  0  0  0
   -3.5869    0.6260   -0.5918 C   0  0  0  0  0  0  0  0  0  0  0  0
   -4.3845   -1.2759    1.1896 C   0  0  0  0  0  0  0  0  0  0  0  0
   -7.1978   -0.7757    0.9622 Br  0  0  0  0  0  0  0  0  0  0  0  0
    5.7360    3.7517    1.7592 Cl  0  0  0  0  0  0  0  0  0  0  0  0
    0.8621    1.5240    0.3194 N   0  0  0  0  0  0  0  0  0  0  0  0
    3.4065   -0.8426   -1.1061 O   0  0  0  0  0  0  0  0  0  0  0  0
   -3.3440    1.6385   -1.4898 O   0  0  0  0  0  0  0  0  0  0  0  0
   -4.6146   -2.2769    2.1054 O   0  0  0  0  0  0  0  0  0  0  0  0
    5.7286   -2.2767   -0.9002 H   0  0  0  0  0  0  0  0  0  0  0  0
    5.4141   -3.2474   -2.3557 H   0  0  0  0  0  0  0  0  0  0  0  0
    4.3265   -3.3354   -0.9509 H   0  0  0  0  0  0  0  0  0  0  0  0
    3.3255   -1.9928   -2.7759 H   0  0  0  0  0  0  0  0  0  0  0  0
    4.6703   -0.8767   -2.7910 H   0  0  0  0  0  0  0  0  0  0  0  0
    6.8788    2.0437   -0.2153 H   0  0  0  0  0  0  0  0  0  0  0  0
    5.9720    0.1347   -1.4240 H   0  0  0  0  0  0  0  0  0  0  0  0
   -0.5850   -0.8373   -0.1723 H   0  0  0  0  0  0  0  0  0  0  0  0
   -1.0148    0.3863   -1.3429 H   0  0  0  0  0  0  0  0  0  0  0  0
   -1.9364   -2.9069    1.0482 H   0  0  0  0  0  0  0  0  0  0  0  0
   -1.3702   -1.6622    2.2096 H   0  0  0  0  0  0  0  0  0  0  0  0
   -6.0319    2.2637   -0.4222 H   0  0  0  0  0  0  0  0  0  0  0  0
   -6.5892    1.0468   -1.6151 H   0  0  0  0  0  0  0  0  0  0  0  0
   -1.1148    2.1216    0.4900 H   0  0  0  0  0  0  0  0  0  0  0  0
   -0.6426    0.9264    1.6761 H   0  0  0  0  0  0  0  0  0  0  0  0
   -3.2541   -1.9525    3.6226 H   0  0  0  0  0  0  0  0  0  0  0  0
   -3.2237   -3.5860    2.9333 H   0  0  0  0  0  0  0  0  0  0  0  0
   -4.7107    1.3802   -3.0134 H   0  0  0  0  0  0  0  0  0  0  0  0
   -4.7237    2.9886   -2.2676 H   0  0  0  0  0  0  0  0  0  0  0  0
    3.1631    2.5366    1.8805 H   0  0  0  0  0  0  0  0  0  0  0  0
    1.5625   -0.4740    0.3251 H   0  0  0  0  0  0  0  0  0  0  0  0
    1.7103    0.3585    1.8621 H   0  0  0  0  0  0  0  0  0  0  0  0
    0.9778    1.6487   -0.6867 H   0  0  0  0  0  0  0  0  0  0  0  0
  1  2  1  0
  2 25  1  0
  3  4  2  0
  3 14  1  0
  4 18  1  0
  5  8  1  0
  5 15  1  0
  6  9  1  0
  6 16  1  0
  7 10  1  0
  7 17  1  0
  8 24  1  0
  9 27  1  0
 10 26  1  0
 11 13  1  0
 11 14  2  0
 12 13  1  0
 12 24  1  0
 13 18  2  0
 14 23  1  0
 15 16  1  0
 15 20  2  0
 16 21  2  0
 17 19  2  0
 17 20  1  0
 18 25  1  0
 19 21  1  0
 19 22  1  0
 20 26  1  0
 21 27  1  0
  1 28  1  0
  1 29  1  0
  1 30  1  0
  2 31  1  0
  2 32  1  0
  3 33  1  0
  4 34  1  0
  5 35  1  0
  5 36  1  0
  6 37  1  0
  6 38  1  0
  7 39  1  0
  7 40  1  0
  8 41  1  0
  8 42  1  0
  9 43  1  0
  9 44  1  0
 10 45  1  0
 10 46  1  0
 11 47  1  0
 12 48  1  0
 12 49  1  0
 24 50  1  0
M  END
