
     RDKit          3D

 47 49  0  0  0  0  0  0  0  0999 V2000
   -6.1313   -0.3101    1.4089 C   0  0  0  0  0  0  0  0  0  0  0  0
    7.7043    0.1267    1.6000 C   0  0  0  0  0  0  0  0  0  0  0  0
   -6.1218    0.5389    0.1473 C   0  0  0  0  0  0  0  0  0  0  0  0
   -5.4220   -0.1324   -1.0368 C   0  0  0  0  0  0  0  0  0  0  0  0
    1.3714   -0.0903   -3.1754 C   0  0  0  0  0  0  0  0  0  0  0  0
    0.1420    0.3199   -3.6755 C   0  0  0  0  0  0  0  0  0  0  0  0
   -3.9520   -0.4993   -0.8167 C   0  0  0  0  0  0  0  0  0  0  0  0
    1.5408   -0.3187   -1.8056 C   0  0  0  0  0  0  0  0  0  0  0  0
   -0.9506    0.5037   -2.8254 C   0  0  0  0  0  0  0  0  0  0  0  0
    3.0335    1.0359    0.9262 C   0  0  0  0  0  0  0  0  0  0  0  0
    3.6606   -1.0948    1.8828 C   0  0  0  0  0  0  0  0  0  0  0  0
    4.3841    1.3865    0.8498 C   0  0  0  0  0  0  0  0  0  0  0  0
    5.0115   -0.7371    1.8055 C   0  0  0  0  0  0  0  0  0  0  0  0
   -3.0701    0.7072   -0.4996 C   0  0  0  0  0  0  0  0  0  0  0  0
   -1.0403    0.0119    0.7695 C   0  0  0  0  0  0  0  0  0  0  0  0
    2.6690   -0.2181    1.4267 C   0  0  0  0  0  0  0  0  0  0  0  0
    5.3783    0.5045    1.2843 C   0  0  0  0  0  0  0  0  0  0  0  0
    0.4611   -0.1207   -0.9143 C   0  0  0  0  0  0  0  0  0  0  0  0
    0.2924   -0.2517    0.5066 C   0  0  0  0  0  0  0  0  0  0  0  0
   -0.7721    0.2730   -1.4507 C   0  0  0  0  0  0  0  0  0  0  0  0
    1.2466   -0.6288    1.5456 C   0  0  0  0  0  0  0  0  0  0  0  0
   -1.6634    0.3435   -0.4015 N   0  0  0  0  0  0  0  0  0  0  0  0
    0.9071   -1.2646    2.5419 O   0  0  0  0  0  0  0  0  0  0  0  0
    6.6551    0.9753    1.1508 O   0  0  0  0  0  0  0  0  0  0  0  0
   -5.1219   -0.4461    1.8082 H   0  0  0  0  0  0  0  0  0  0  0  0
   -6.5642   -1.2966    1.2156 H   0  0  0  0  0  0  0  0  0  0  0  0
   -6.7310    0.1769    2.1846 H   0  0  0  0  0  0  0  0  0  0  0  0
    7.6203   -0.0706    2.6739 H   0  0  0  0  0  0  0  0  0  0  0  0
    8.6514    0.6480    1.4306 H   0  0  0  0  0  0  0  0  0  0  0  0
    7.7303   -0.8058    1.0267 H   0  0  0  0  0  0  0  0  0  0  0  0
   -5.6615    1.5094    0.3627 H   0  0  0  0  0  0  0  0  0  0  0  0
   -7.1595    0.7473   -0.1400 H   0  0  0  0  0  0  0  0  0  0  0  0
   -5.4954    0.5330   -1.9061 H   0  0  0  0  0  0  0  0  0  0  0  0
   -5.9703   -1.0452   -1.3013 H   0  0  0  0  0  0  0  0  0  0  0  0
    2.2087   -0.2412   -3.8523 H   0  0  0  0  0  0  0  0  0  0  0  0
    0.0245    0.4900   -4.7432 H   0  0  0  0  0  0  0  0  0  0  0  0
   -3.5850   -0.9910   -1.7268 H   0  0  0  0  0  0  0  0  0  0  0  0
   -3.8645   -1.2474   -0.0196 H   0  0  0  0  0  0  0  0  0  0  0  0
    2.5085   -0.6551   -1.4442 H   0  0  0  0  0  0  0  0  0  0  0  0
   -1.9109    0.8069   -3.2300 H   0  0  0  0  0  0  0  0  0  0  0  0
    2.2821    1.7504    0.5990 H   0  0  0  0  0  0  0  0  0  0  0  0
    3.3830   -2.0608    2.3011 H   0  0  0  0  0  0  0  0  0  0  0  0
    4.6652    2.3599    0.4537 H   0  0  0  0  0  0  0  0  0  0  0  0
    5.7475   -1.4486    2.1651 H   0  0  0  0  0  0  0  0  0  0  0  0
   -3.3497    1.1623    0.4570 H   0  0  0  0  0  0  0  0  0  0  0  0
   -3.1624    1.4826   -1.2679 H   0  0  0  0  0  0  0  0  0  0  0  0
   -1.5797   -0.0085    1.7089 H   0  0  0  0  0  0  0  0  0  0  0  0
  1  3  1  0
  2 24  1  0
  3  4  1  0
  4  7  1  0
  5  6  2  0
  5  8  1  0
  6  9  1  0
  7 14  1  0
  8 18  2  0
  9 20  2  0
 10 12  2  0
 10 16  1  0
 11 13  1  0
 11 16  2  0
 12 17  1  0
 13 17  2  0
 14 22  1  0
 15 19  2  0
 15 22  1  0
 16 21  1  0
 17 24  1  0
 18 19  1  0
 18 20  1  0
 19 21  1  0
 20 22  1  0
 21 23  2  0
  1 25  1  0
  1 26  1  0
  1 27  1  0
  2 28  1  0
  2 29  1  0
  2 30  1  0
  3 31  1  0
  3 32  1  0
  4 33  1  0
  4 34  1  0
  5 35  1  0
  6 36  1  0
  7 37  1  0
  7 38  1  0
  8 39  1  0
  9 40  1  0
 10 41  1  0
 11 42  1  0
 12 43  1  0
 13 44  1  0
 14 45  1  0
 14 46  1  0
 15 47  1  0
M  END
