
     RDKit          3D

 51 55  0  0  0  0  0  0  0  0999 V2000
    3.1805   -3.7245   -0.4749 C   0  0  0  0  0  0  0  0  0  0  0  0
    4.0560    3.7982    1.1059 C   0  0  0  0  0  0  0  0  0  0  0  0
   -4.6848    1.7747   -1.8104 C   0  0  0  0  0  0  0  0  0  0  0  0
   -4.9558    2.8282   -0.9185 C   0  0  0  0  0  0  0  0  0  0  0  0
   -3.8057    0.7451   -1.4566 C   0  0  0  0  0  0  0  0  0  0  0  0
   -4.3528    2.8643    0.3442 C   0  0  0  0  0  0  0  0  0  0  0  0
   -2.7196   -1.5576    0.6877 C   0  0  0  0  0  0  0  0  0  0  0  0
   -1.4515   -2.3902    0.5575 C   0  0  0  0  0  0  0  0  0  0  0  0
    0.3518    0.3437    0.2751 C   0  0  0  0  0  0  0  0  0  0  0  0
    0.4834   -2.2942   -0.9700 C   0  0  0  0  0  0  0  0  0  0  0  0
    3.9835   -0.2634    0.3396 C   0  0  0  0  0  0  0  0  0  0  0  0
    3.0404   -2.2121   -0.6431 C   0  0  0  0  0  0  0  0  0  0  0  0
    1.6252   -0.1464   -0.4273 C   0  0  0  0  0  0  0  0  0  0  0  0
    1.6638   -1.6789   -0.2191 C   0  0  0  0  0  0  0  0  0  0  0  0
    2.9019    0.4838    0.0667 C   0  0  0  0  0  0  0  0  0  0  0  0
   -3.2112    0.7952   -0.2037 C   0  0  0  0  0  0  0  0  0  0  0  0
   -3.4823    1.8444    0.6878 C   0  0  0  0  0  0  0  0  0  0  0  0
   -0.9011   -0.2927   -0.3579 C   0  0  0  0  0  0  0  0  0  0  0  0
    2.9871    1.9644    0.1254 C   0  0  0  0  0  0  0  0  0  0  0  0
   -2.1273    0.6119    1.7858 C   0  0  0  0  0  0  0  0  0  0  0  0
   -2.2145   -0.1298    0.4539 C   0  0  0  0  0  0  0  0  0  0  0  0
   -2.8058    1.7085    1.9145 N   0  0  0  0  0  0  0  0  0  0  0  0
   -0.8190   -1.7549   -0.5933 N   0  0  0  0  0  0  0  0  0  0  0  0
    2.2953    2.6953   -0.5719 O   0  0  0  0  0  0  0  0  0  0  0  0
   -1.4335    0.1216    2.8051 O   0  0  0  0  0  0  0  0  0  0  0  0
    3.9121    2.3771    1.0303 O   0  0  0  0  0  0  0  0  0  0  0  0
    4.0786   -1.6222    0.1696 O   0  0  0  0  0  0  0  0  0  0  0  0
    2.5089   -4.2759   -1.1395 H   0  0  0  0  0  0  0  0  0  0  0  0
    4.2078   -4.0431   -0.6954 H   0  0  0  0  0  0  0  0  0  0  0  0
    2.9812   -4.0206    0.5640 H   0  0  0  0  0  0  0  0  0  0  0  0
    3.0902    4.2841    1.2907 H   0  0  0  0  0  0  0  0  0  0  0  0
    4.7313    4.0306    1.9341 H   0  0  0  0  0  0  0  0  0  0  0  0
    4.5040    4.1761    0.1821 H   0  0  0  0  0  0  0  0  0  0  0  0
   -5.1636    1.7652   -2.7872 H   0  0  0  0  0  0  0  0  0  0  0  0
   -5.6405    3.6211   -1.2126 H   0  0  0  0  0  0  0  0  0  0  0  0
   -3.5896   -0.0610   -2.1494 H   0  0  0  0  0  0  0  0  0  0  0  0
   -4.5607    3.6669    1.0444 H   0  0  0  0  0  0  0  0  0  0  0  0
   -3.1953   -1.7078    1.6612 H   0  0  0  0  0  0  0  0  0  0  0  0
   -3.4404   -1.8578   -0.0831 H   0  0  0  0  0  0  0  0  0  0  0  0
   -1.6885   -3.4427    0.3809 H   0  0  0  0  0  0  0  0  0  0  0  0
   -0.8294   -2.3084    1.4558 H   0  0  0  0  0  0  0  0  0  0  0  0
    0.4419    0.0930    1.3375 H   0  0  0  0  0  0  0  0  0  0  0  0
    0.2538    1.4331    0.2139 H   0  0  0  0  0  0  0  0  0  0  0  0
    0.6157   -2.1018   -2.0440 H   0  0  0  0  0  0  0  0  0  0  0  0
    0.4697   -3.3813   -0.8686 H   0  0  0  0  0  0  0  0  0  0  0  0
    4.9259    0.1269    0.7115 H   0  0  0  0  0  0  0  0  0  0  0  0
    3.2494   -1.9580   -1.6910 H   0  0  0  0  0  0  0  0  0  0  0  0
    1.5493    0.0794   -1.5020 H   0  0  0  0  0  0  0  0  0  0  0  0
    1.5482   -1.8957    0.8542 H   0  0  0  0  0  0  0  0  0  0  0  0
   -1.0110    0.1597   -1.3532 H   0  0  0  0  0  0  0  0  0  0  0  0
   -1.5525    0.7284    3.5579 H   0  0  0  0  0  0  0  0  0  0  0  0
  1 12  1  0
  2 26  1  0
  3  4  2  0
  3  5  1  0
  4  6  1  0
  5 16  2  0
  6 17  2  0
  7  8  1  0
  7 21  1  0
  8 23  1  0
  9 13  1  0
  9 18  1  0
 10 14  1  0
 10 23  1  0
 11 15  2  0
 11 27  1  0
 12 14  1  0
 12 27  1  0
 13 14  1  0
 13 15  1  0
 15 19  1  0
 16 17  1  0
 16 21  1  0
 17 22  1  0
 18 21  1  0
 18 23  1  0
 19 24  2  0
 19 26  1  0
 20 21  1  0
 20 22  2  0
 20 25  1  0
  1 28  1  0
  1 29  1  0
  1 30  1  0
  2 31  1  0
  2 32  1  0
  2 33  1  0
  3 34  1  0
  4 35  1  0
  5 36  1  0
  6 37  1  0
  7 38  1  0
  7 39  1  0
  8 40  1  0
  8 41  1  0
  9 42  1  0
  9 43  1  0
 10 44  1  0
 10 45  1  0
 11 46  1  0
 12 47  1  0
 13 48  1  0
 14 49  1  0
 18 50  1  0
 25 51  1  0
M  END
