
     RDKit          3D

 51 54  0  0  0  0  0  0  0  0999 V2000
   -5.0804   -2.8536    0.2291 C   0  0  0  0  0  0  0  0  0  0  0  0
   -4.6854    1.5815    0.0479 C   0  0  0  0  0  0  0  0  0  0  0  0
    0.4337   -0.7517   -3.2916 C   0  0  0  0  0  0  0  0  0  0  0  0
   -4.8219   -1.5611    0.9875 C   0  0  0  0  0  0  0  0  0  0  0  0
   -4.3495    0.2673   -0.6401 C   0  0  0  0  0  0  0  0  0  0  0  0
    3.3621    0.5504    3.3822 C   0  0  0  0  0  0  0  0  0  0  0  0
    2.1887    0.2722    2.6728 C   0  0  0  0  0  0  0  0  0  0  0  0
    4.5199    1.0149    2.7388 C   0  0  0  0  0  0  0  0  0  0  0  0
   -0.2701    0.2498    0.8223 C   0  0  0  0  0  0  0  0  0  0  0  0
    2.4059    0.9503   -1.6929 C   0  0  0  0  0  0  0  0  0  0  0  0
   -0.9787   -0.7917   -1.3507 C   0  0  0  0  0  0  0  0  0  0  0  0
    4.8119    1.6004   -0.8517 C   0  0  0  0  0  0  0  0  0  0  0  0
    6.7284    2.0188    0.6293 C   0  0  0  0  0  0  0  0  0  0  0  0
    3.5157    1.1651   -0.7203 C   0  0  0  0  0  0  0  0  0  0  0  0
   -1.4360   -0.0439   -0.0876 C   0  0  0  0  0  0  0  0  0  0  0  0
    2.1382    0.4545    1.2874 C   0  0  0  0  0  0  0  0  0  0  0  0
    0.9982    0.2109    0.3727 C   0  0  0  0  0  0  0  0  0  0  0  0
    4.4683    1.1898    1.3473 C   0  0  0  0  0  0  0  0  0  0  0  0
    1.3436   -0.0658   -1.1230 C   0  0  0  0  0  0  0  0  0  0  0  0
    3.3008    0.9118    0.6484 C   0  0  0  0  0  0  0  0  0  0  0  0
   -2.4866   -0.9113    0.6275 C   0  0  0  0  0  0  0  0  0  0  0  0
    0.1415   -0.0938   -2.0145 N   0  0  0  0  0  0  0  0  0  0  0  0
   -3.8322   -0.7250    0.3053 N   0  0  0  0  0  0  0  0  0  0  0  0
    5.4039    1.6202    0.4085 N   0  0  0  0  0  0  0  0  0  0  0  0
    7.2050    2.0168    1.7579 O   0  0  0  0  0  0  0  0  0  0  0  0
   -2.1416   -1.7758    1.4396 O   0  0  0  0  0  0  0  0  0  0  0  0
   -5.4579   -2.6506   -0.7783 H   0  0  0  0  0  0  0  0  0  0  0  0
   -4.1630   -3.4426    0.1285 H   0  0  0  0  0  0  0  0  0  0  0  0
   -5.8218   -3.4620    0.7561 H   0  0  0  0  0  0  0  0  0  0  0  0
   -5.4574    1.4411    0.8113 H   0  0  0  0  0  0  0  0  0  0  0  0
   -5.0569    2.3076   -0.6817 H   0  0  0  0  0  0  0  0  0  0  0  0
   -3.8071    2.0096    0.5410 H   0  0  0  0  0  0  0  0  0  0  0  0
    0.7857   -1.7808   -3.1568 H   0  0  0  0  0  0  0  0  0  0  0  0
    1.1835   -0.1987   -3.8647 H   0  0  0  0  0  0  0  0  0  0  0  0
   -0.4623   -0.7783   -3.9225 H   0  0  0  0  0  0  0  0  0  0  0  0
   -4.4703   -1.7991    1.9977 H   0  0  0  0  0  0  0  0  0  0  0  0
   -5.7525   -0.9942    1.1007 H   0  0  0  0  0  0  0  0  0  0  0  0
   -3.6239    0.4456   -1.4368 H   0  0  0  0  0  0  0  0  0  0  0  0
   -5.2435   -0.1439   -1.1225 H   0  0  0  0  0  0  0  0  0  0  0  0
    3.3808    0.3998    4.4600 H   0  0  0  0  0  0  0  0  0  0  0  0
    1.3224   -0.1015    3.2120 H   0  0  0  0  0  0  0  0  0  0  0  0
    5.4210    1.2248    3.3082 H   0  0  0  0  0  0  0  0  0  0  0  0
   -0.5037    0.4855    1.8563 H   0  0  0  0  0  0  0  0  0  0  0  0
    1.9257    1.9160   -1.8973 H   0  0  0  0  0  0  0  0  0  0  0  0
    2.8251    0.5786   -2.6343 H   0  0  0  0  0  0  0  0  0  0  0  0
   -0.6982   -1.8276   -1.1096 H   0  0  0  0  0  0  0  0  0  0  0  0
   -1.8285   -0.8591   -2.0414 H   0  0  0  0  0  0  0  0  0  0  0  0
    5.3729    1.9037   -1.7259 H   0  0  0  0  0  0  0  0  0  0  0  0
    7.3061    2.3281   -0.2567 H   0  0  0  0  0  0  0  0  0  0  0  0
   -1.8631    0.9290   -0.3477 H   0  0  0  0  0  0  0  0  0  0  0  0
    1.8032   -1.0672   -1.1276 H   0  0  0  0  0  0  0  0  0  0  0  0
  1  4  1  0
  2  5  1  0
  3 22  1  0
  4 23  1  0
  5 23  1  0
  6  7  2  0
  6  8  1  0
  7 16  1  0
  8 18  2  0
  9 15  1  0
  9 17  2  0
 10 14  1  0
 10 19  1  0
 11 15  1  0
 11 22  1  0
 12 14  2  0
 12 24  1  0
 13 24  1  0
 13 25  2  0
 14 20  1  0
 15 21  1  0
 16 17  1  0
 16 20  2  0
 17 19  1  0
 18 20  1  0
 18 24  1  0
 19 22  1  0
 21 23  1  0
 21 26  2  0
  1 27  1  0
  1 28  1  0
  1 29  1  0
  2 30  1  0
  2 31  1  0
  2 32  1  0
  3 33  1  0
  3 34  1  0
  3 35  1  0
  4 36  1  0
  4 37  1  0
  5 38  1  0
  5 39  1  0
  6 40  1  0
  7 41  1  0
  8 42  1  0
  9 43  1  0
 10 44  1  0
 10 45  1  0
 11 46  1  0
 11 47  1  0
 12 48  1  0
 13 49  1  0
 15 50  1  0
 19 51  1  0
M  END
