
     RDKit          3D

 54 56  0  0  0  0  0  0  0  0999 V2000
   -1.9213   -4.0171    1.2854 C   0  0  0  0  0  0  0  0  0  0  0  0
   -4.2862   -2.2463   -0.8908 C   0  0  0  0  0  0  0  0  0  0  0  0
    5.7884   -3.1852    0.9134 C   0  0  0  0  0  0  0  0  0  0  0  0
   -1.5794   -2.7765    0.4654 C   0  0  0  0  0  0  0  0  0  0  0  0
   -3.8765   -1.8698    0.5303 C   0  0  0  0  0  0  0  0  0  0  0  0
    3.3209    0.6061   -0.7009 C   0  0  0  0  0  0  0  0  0  0  0  0
    2.3932   -1.5897   -1.0530 C   0  0  0  0  0  0  0  0  0  0  0  0
   -1.7641    4.5572    1.4160 C   0  0  0  0  0  0  0  0  0  0  0  0
    4.4181    0.0316   -0.0550 C   0  0  0  0  0  0  0  0  0  0  0  0
    3.4949   -2.1624   -0.4060 C   0  0  0  0  0  0  0  0  0  0  0  0
   -1.5649    3.1735    1.3447 C   0  0  0  0  0  0  0  0  0  0  0  0
   -1.9935   -0.4072    0.0303 C   0  0  0  0  0  0  0  0  0  0  0  0
   -0.7112    0.2040    0.6138 C   0  0  0  0  0  0  0  0  0  0  0  0
    1.0980    0.4080   -1.9096 C   0  0  0  0  0  0  0  0  0  0  0  0
   -0.3596    4.9246   -0.5565 C   0  0  0  0  0  0  0  0  0  0  0  0
    2.2858   -0.1985   -1.1940 C   0  0  0  0  0  0  0  0  0  0  0  0
   -1.1690    5.4161    0.4792 C   0  0  0  0  0  0  0  0  0  0  0  0
    4.5114   -1.3526    0.0990 C   0  0  0  0  0  0  0  0  0  0  0  0
   -0.1591    3.5397   -0.6292 C   0  0  0  0  0  0  0  0  0  0  0  0
   -0.7521    2.6993    0.3070 C   0  0  0  0  0  0  0  0  0  0  0  0
    0.4584    1.5556   -1.1832 C   0  0  0  0  0  0  0  0  0  0  0  0
    0.5726    2.8226   -1.5361 N   0  0  0  0  0  0  0  0  0  0  0  0
   -2.4407   -1.6165    0.7521 N   0  0  0  0  0  0  0  0  0  0  0  0
   -0.3442    1.4359   -0.0665 N   0  0  0  0  0  0  0  0  0  0  0  0
   -1.3985    6.8627    0.5803 N   0  0  0  0  0  4  0  0  0  0  0  0
   -0.8518    7.5960   -0.2555 O   0  0  0  0  0  1  0  0  0  0  0  0
   -2.1288    7.2674    1.4967 O   0  0  0  0  0  0  0  0  0  0  0  0
    5.6349   -1.7814    0.7497 O   0  0  0  0  0  0  0  0  0  0  0  0
   -2.8788   -4.4540    0.9864 H   0  0  0  0  0  0  0  0  0  0  0  0
   -1.1532   -4.7837    1.1370 H   0  0  0  0  0  0  0  0  0  0  0  0
   -1.9600   -3.7857    2.3549 H   0  0  0  0  0  0  0  0  0  0  0  0
   -4.0196   -1.4662   -1.6101 H   0  0  0  0  0  0  0  0  0  0  0  0
   -5.3723   -2.3792   -0.9380 H   0  0  0  0  0  0  0  0  0  0  0  0
   -3.8277   -3.1866   -1.2106 H   0  0  0  0  0  0  0  0  0  0  0  0
    4.9819   -3.6015    1.5261 H   0  0  0  0  0  0  0  0  0  0  0  0
    6.7310   -3.3593    1.4414 H   0  0  0  0  0  0  0  0  0  0  0  0
    5.8512   -3.6914   -0.0555 H   0  0  0  0  0  0  0  0  0  0  0  0
   -1.5918   -3.0286   -0.6017 H   0  0  0  0  0  0  0  0  0  0  0  0
   -0.5418   -2.5270    0.7119 H   0  0  0  0  0  0  0  0  0  0  0  0
   -4.4413   -0.9773    0.8303 H   0  0  0  0  0  0  0  0  0  0  0  0
   -4.2223   -2.6491    1.2192 H   0  0  0  0  0  0  0  0  0  0  0  0
    3.2815    1.6887   -0.8156 H   0  0  0  0  0  0  0  0  0  0  0  0
    1.6194   -2.2448   -1.4475 H   0  0  0  0  0  0  0  0  0  0  0  0
   -2.3908    4.9503    2.2157 H   0  0  0  0  0  0  0  0  0  0  0  0
    5.2101    0.6710    0.3276 H   0  0  0  0  0  0  0  0  0  0  0  0
    3.5301   -3.2430   -0.3182 H   0  0  0  0  0  0  0  0  0  0  0  0
   -2.0242    2.5070    2.0682 H   0  0  0  0  0  0  0  0  0  0  0  0
   -2.7754    0.3616    0.0941 H   0  0  0  0  0  0  0  0  0  0  0  0
   -1.8620   -0.6189   -1.0384 H   0  0  0  0  0  0  0  0  0  0  0  0
   -0.8413    0.4356    1.6772 H   0  0  0  0  0  0  0  0  0  0  0  0
    0.1385   -0.4775    0.5463 H   0  0  0  0  0  0  0  0  0  0  0  0
    0.3373   -0.3584   -2.1008 H   0  0  0  0  0  0  0  0  0  0  0  0
    1.4376    0.7507   -2.8953 H   0  0  0  0  0  0  0  0  0  0  0  0
    0.1084    5.5700   -1.2921 H   0  0  0  0  0  0  0  0  0  0  0  0
  1  4  1  0
  2  5  1  0
  3 28  1  0
  4 23  1  0
  5 23  1  0
  6  9  2  0
  6 16  1  0
  7 10  1  0
  7 16  2  0
  8 11  2  0
  8 17  1  0
  9 18  1  0
 10 18  2  0
 11 20  1  0
 12 13  1  0
 12 23  1  0
 13 24  1  0
 14 16  1  0
 14 21  1  0
 15 17  2  0
 15 19  1  0
 17 25  1  0
 18 28  1  0
 19 20  2  0
 19 22  1  0
 20 24  1  0
 21 22  2  0
 21 24  1  0
 25 26  1  0
 25 27  2  0
  1 29  1  0
  1 30  1  0
  1 31  1  0
  2 32  1  0
  2 33  1  0
  2 34  1  0
  3 35  1  0
  3 36  1  0
  3 37  1  0
  4 38  1  0
  4 39  1  0
  5 40  1  0
  5 41  1  0
  6 42  1  0
  7 43  1  0
  8 44  1  0
  9 45  1  0
 10 46  1  0
 11 47  1  0
 12 48  1  0
 12 49  1  0
 13 50  1  0
 13 51  1  0
 14 52  1  0
 14 53  1  0
 15 54  1  0
M  CHG  2  25   1  26  -1
M  END
