
     RDKit          3D

 49 53  0  0  0  0  0  0  0  0999 V2000
   -2.8786    1.7934    2.4454 C   0  0  0  0  0  0  0  0  0  0  0  0
    6.2848   -0.0128    1.6080 C   0  0  0  0  0  0  0  0  0  0  0  0
   -3.7172    0.9536    1.4927 C   0  0  0  0  0  0  0  0  0  0  0  0
    4.7248    1.5422   -1.2727 C   0  0  0  0  0  0  0  0  0  0  0  0
    3.5095    1.6587   -1.9555 C   0  0  0  0  0  0  0  0  0  0  0  0
    0.7340   -1.3054    1.0870 C   0  0  0  0  0  0  0  0  0  0  0  0
   -0.5974   -2.1631    0.8941 C   0  0  0  0  0  0  0  0  0  0  0  0
   -4.0248   -0.0215   -0.8133 C   0  0  0  0  0  0  0  0  0  0  0  0
   -2.0344   -0.3811   -2.2635 C   0  0  0  0  0  0  0  0  0  0  0  0
    3.7374    0.0707    0.3755 C   0  0  0  0  0  0  0  0  0  0  0  0
   -2.7632   -2.1422   -0.4217 C   0  0  0  0  0  0  0  0  0  0  0  0
   -3.2405   -1.1079   -1.5513 C   0  0  0  0  0  0  0  0  0  0  0  0
   -3.0437    0.6988    0.1297 C   0  0  0  0  0  0  0  0  0  0  0  0
    4.8481    0.7629   -0.1215 C   0  0  0  0  0  0  0  0  0  0  0  0
    1.2031   -0.3942   -0.0637 C   0  0  0  0  0  0  0  0  0  0  0  0
    2.4969    0.1648   -0.2943 C   0  0  0  0  0  0  0  0  0  0  0  0
   -1.0140   -0.3070   -1.1710 C   0  0  0  0  0  0  0  0  0  0  0  0
    2.4112    0.9612   -1.4434 C   0  0  0  0  0  0  0  0  0  0  0  0
    0.3898    0.0995   -1.0805 C   0  0  0  0  0  0  0  0  0  0  0  0
   -1.7076   -0.1007    0.2128 C   0  0  0  0  0  0  0  0  0  0  0  0
    1.1111    0.9013   -1.9032 N   0  0  0  0  0  0  0  0  0  0  0  0
   -1.9322   -1.4844    0.6598 N   0  0  0  0  0  0  0  0  0  0  0  0
    6.1039    0.7574    0.4268 O   0  0  0  0  0  0  0  0  0  0  0  0
   -3.4655    2.0495    3.3335 H   0  0  0  0  0  0  0  0  0  0  0  0
   -1.9912    1.2519    2.7853 H   0  0  0  0  0  0  0  0  0  0  0  0
   -2.5582    2.7263    1.9711 H   0  0  0  0  0  0  0  0  0  0  0  0
    6.0976   -1.0751    1.4194 H   0  0  0  0  0  0  0  0  0  0  0  0
    5.6577    0.3616    2.4239 H   0  0  0  0  0  0  0  0  0  0  0  0
    7.3293    0.0906    1.9175 H   0  0  0  0  0  0  0  0  0  0  0  0
   -4.6656    1.4791    1.3229 H   0  0  0  0  0  0  0  0  0  0  0  0
   -3.9688    0.0042    1.9804 H   0  0  0  0  0  0  0  0  0  0  0  0
    5.5956    2.0751   -1.6489 H   0  0  0  0  0  0  0  0  0  0  0  0
    3.4309    2.2715   -2.8471 H   0  0  0  0  0  0  0  0  0  0  0  0
    1.5443   -2.0156    1.2969 H   0  0  0  0  0  0  0  0  0  0  0  0
    0.6223   -0.6849    1.9853 H   0  0  0  0  0  0  0  0  0  0  0  0
   -0.3879   -2.8977    0.1056 H   0  0  0  0  0  0  0  0  0  0  0  0
   -0.7270   -2.7553    1.8087 H   0  0  0  0  0  0  0  0  0  0  0  0
   -4.4604    0.6951   -1.5200 H   0  0  0  0  0  0  0  0  0  0  0  0
   -4.8627   -0.4713   -0.2668 H   0  0  0  0  0  0  0  0  0  0  0  0
   -2.3105    0.6035   -2.6554 H   0  0  0  0  0  0  0  0  0  0  0  0
   -1.6781   -0.9812   -3.1098 H   0  0  0  0  0  0  0  0  0  0  0  0
    3.7946   -0.5429    1.2656 H   0  0  0  0  0  0  0  0  0  0  0  0
   -2.2342   -2.9697   -0.9093 H   0  0  0  0  0  0  0  0  0  0  0  0
   -3.6466   -2.5754    0.0621 H   0  0  0  0  0  0  0  0  0  0  0  0
   -3.8778   -1.6099   -2.2863 H   0  0  0  0  0  0  0  0  0  0  0  0
   -2.8105    1.6779   -0.3123 H   0  0  0  0  0  0  0  0  0  0  0  0
   -0.7186   -1.3652   -1.2966 H   0  0  0  0  0  0  0  0  0  0  0  0
   -1.0788    0.4434    0.9242 H   0  0  0  0  0  0  0  0  0  0  0  0
    0.7689    1.3779   -2.7262 H   0  0  0  0  0  0  0  0  0  0  0  0
  1  3  1  0
  2 23  1  0
  3 13  1  0
  4  5  1  0
  4 14  2  0
  5 18  2  0
  6  7  1  0
  6 15  1  0
  7 22  1  0
  8 12  1  0
  8 13  1  0
  9 12  1  0
  9 17  1  0
 10 14  1  0
 10 16  2  0
 11 12  1  0
 11 22  1  0
 13 20  1  0
 14 23  1  0
 15 16  1  0
 15 19  2  0
 16 18  1  0
 17 19  1  0
 17 20  1  0
 18 21  1  0
 19 21  1  0
 20 22  1  0
  1 24  1  0
  1 25  1  0
  1 26  1  0
  2 27  1  0
  2 28  1  0
  2 29  1  0
  3 30  1  0
  3 31  1  0
  4 32  1  0
  5 33  1  0
  6 34  1  0
  6 35  1  0
  7 36  1  0
  7 37  1  0
  8 38  1  0
  8 39  1  0
  9 40  1  0
  9 41  1  0
 10 42  1  0
 11 43  1  0
 11 44  1  0
 12 45  1  0
 13 46  1  0
 17 47  1  0
 20 48  1  0
 21 49  1  0
M  END
