
     RDKit          3D

 55 58  0  0  0  0  0  0  0  0999 V2000
   -6.6371    0.8387   -1.6599 C   0  0  0  0  0  0  0  0  0  0  0  0
   -6.1005   -0.4283   -1.8658 C   0  0  0  0  0  0  0  0  0  0  0  0
   -6.2556    1.5814   -0.5447 C   0  0  0  0  0  0  0  0  0  0  0  0
   -5.1698   -0.9480   -0.9646 C   0  0  0  0  0  0  0  0  0  0  0  0
    3.9708    0.0427    1.0133 C   0  0  0  0  0  0  0  0  0  0  0  0
    4.3879   -0.2131   -1.3284 C   0  0  0  0  0  0  0  0  0  0  0  0
    5.2630    0.5505    1.1972 C   0  0  0  0  0  0  0  0  0  0  0  0
    5.6836    0.2923   -1.1650 C   0  0  0  0  0  0  0  0  0  0  0  0
   -2.2570   -0.7068    0.5833 C   0  0  0  0  0  0  0  0  0  0  0  0
   -5.0017    1.8347    1.6195 C   0  0  0  0  0  0  0  0  0  0  0  0
   -1.9462   -1.7720   -0.4776 C   0  0  0  0  0  0  0  0  0  0  0  0
    0.0123   -0.7643   -1.5800 C   0  0  0  0  0  0  0  0  0  0  0  0
    0.3480   -2.3774    0.2304 C   0  0  0  0  0  0  0  0  0  0  0  0
    1.5502   -0.8166   -1.7381 C   0  0  0  0  0  0  0  0  0  0  0  0
    1.4142   -1.3586    0.7029 C   0  0  0  0  0  0  0  0  0  0  0  0
   -3.7299    1.3288    2.2837 C   0  0  0  0  0  0  0  0  0  0  0  0
   -5.3151    1.0695    0.3607 C   0  0  0  0  0  0  0  0  0  0  0  0
    3.4957   -0.3538   -0.2494 C   0  0  0  0  0  0  0  0  0  0  0  0
    6.1175    0.6618    0.1041 C   0  0  0  0  0  0  0  0  0  0  0  0
   -4.7480   -0.2010    0.1467 C   0  0  0  0  0  0  0  0  0  0  0  0
   -3.7101   -0.7583    1.1080 C   0  0  0  0  0  0  0  0  0  0  0  0
    8.6031   -0.1040    0.7274 N   0  0  0  0  0  0  0  0  0  0  0  0
   -0.5372   -1.9216   -0.8558 N   0  0  0  0  0  0  0  0  0  0  0  0
    2.2205   -0.8623   -0.4249 N   0  0  0  0  0  0  0  0  0  0  0  0
    8.2710    1.7134   -0.9513 O   0  0  0  0  0  0  0  0  0  0  0  0
    7.7582    2.1592    1.4894 O   0  0  0  0  0  0  0  0  0  0  0  0
   -3.7609   -0.0949    2.3902 O   0  0  0  0  0  0  0  0  0  0  0  0
    7.7547    1.2967    0.3321 S   0  0  0  0  0  6  0  0  0  0  0  0
   -7.3682    1.2400   -2.3561 H   0  0  0  0  0  0  0  0  0  0  0  0
   -6.4131   -1.0175   -2.7239 H   0  0  0  0  0  0  0  0  0  0  0  0
   -6.7081    2.5556   -0.3736 H   0  0  0  0  0  0  0  0  0  0  0  0
   -4.7857   -1.9509   -1.1356 H   0  0  0  0  0  0  0  0  0  0  0  0
    3.3265   -0.0110    1.8873 H   0  0  0  0  0  0  0  0  0  0  0  0
    4.0923   -0.5183   -2.3288 H   0  0  0  0  0  0  0  0  0  0  0  0
    5.5838    0.8592    2.1903 H   0  0  0  0  0  0  0  0  0  0  0  0
    6.3352    0.3870   -2.0306 H   0  0  0  0  0  0  0  0  0  0  0  0
   -1.5853   -0.8328    1.4411 H   0  0  0  0  0  0  0  0  0  0  0  0
   -2.0460    0.2887    0.1764 H   0  0  0  0  0  0  0  0  0  0  0  0
   -5.8464    1.6942    2.3059 H   0  0  0  0  0  0  0  0  0  0  0  0
   -4.9055    2.9059    1.4104 H   0  0  0  0  0  0  0  0  0  0  0  0
   -2.3096   -2.7474   -0.1299 H   0  0  0  0  0  0  0  0  0  0  0  0
   -2.5099   -1.5565   -1.3918 H   0  0  0  0  0  0  0  0  0  0  0  0
   -0.2345    0.1725   -1.0666 H   0  0  0  0  0  0  0  0  0  0  0  0
   -0.4426   -0.7180   -2.5762 H   0  0  0  0  0  0  0  0  0  0  0  0
   -0.2218   -2.7357    1.0961 H   0  0  0  0  0  0  0  0  0  0  0  0
    0.8800   -3.2584   -0.1527 H   0  0  0  0  0  0  0  0  0  0  0  0
    1.8486    0.0789   -2.2974 H   0  0  0  0  0  0  0  0  0  0  0  0
    1.8374   -1.6975   -2.3255 H   0  0  0  0  0  0  0  0  0  0  0  0
    2.0485   -1.8711    1.4360 H   0  0  0  0  0  0  0  0  0  0  0  0
    0.9276   -0.5134    1.2037 H   0  0  0  0  0  0  0  0  0  0  0  0
   -3.6568    1.7383    3.2970 H   0  0  0  0  0  0  0  0  0  0  0  0
   -2.8344    1.6548    1.7441 H   0  0  0  0  0  0  0  0  0  0  0  0
   -3.9733   -1.8005    1.3270 H   0  0  0  0  0  0  0  0  0  0  0  0
    9.2842   -0.2941   -0.0098 H   0  0  0  0  0  0  0  0  0  0  0  0
    7.9955   -0.9041    0.9000 H   0  0  0  0  0  0  0  0  0  0  0  0
  1  2  2  0
  1  3  1  0
  2  4  1  0
  3 17  2  0
  4 20  2  0
  5  7  2  0
  5 18  1  0
  6  8  1  0
  6 18  2  0
  7 19  1  0
  8 19  2  0
  9 11  1  0
  9 21  1  0
 10 16  1  0
 10 17  1  0
 11 23  1  0
 12 14  1  0
 12 23  1  0
 13 15  1  0
 13 23  1  0
 14 24  1  0
 15 24  1  0
 16 27  1  0
 17 20  1  0
 18 24  1  0
 19 28  1  0
 20 21  1  0
 21 27  1  0
 22 28  1  0
 25 28  2  0
 26 28  2  0
  1 29  1  0
  2 30  1  0
  3 31  1  0
  4 32  1  0
  5 33  1  0
  6 34  1  0
  7 35  1  0
  8 36  1  0
  9 37  1  0
  9 38  1  0
 10 39  1  0
 10 40  1  0
 11 41  1  0
 11 42  1  0
 12 43  1  0
 12 44  1  0
 13 45  1  0
 13 46  1  0
 14 47  1  0
 14 48  1  0
 15 49  1  0
 15 50  1  0
 16 51  1  0
 16 52  1  0
 21 53  1  0
 22 54  1  0
 22 55  1  0
M  END
