
     RDKit          3D

 60 63  0  0  0  0  0  0  0  0999 V2000
    2.8963   -3.0558   -1.6000 C   0  0  0  0  0  0  0  0  0  0  0  0
    0.6513    6.1189    0.0197 C   0  0  0  0  0  0  0  0  0  0  0  0
    6.1435    0.7859    1.7155 C   0  0  0  0  0  0  0  0  0  0  0  0
    3.4807   -3.5888   -0.2992 C   0  0  0  0  0  0  0  0  0  0  0  0
   -0.4532    5.1509   -0.3647 C   0  0  0  0  0  0  0  0  0  0  0  0
    3.0093   -2.8155    0.9346 C   0  0  0  0  0  0  0  0  0  0  0  0
   -2.8518    1.8216   -1.3379 C   0  0  0  0  0  0  0  0  0  0  0  0
   -2.0787    2.9274   -0.9758 C   0  0  0  0  0  0  0  0  0  0  0  0
   -5.0697   -1.6146    1.0443 C   0  0  0  0  0  0  0  0  0  0  0  0
   -4.7091   -3.7873    0.0723 C   0  0  0  0  0  0  0  0  0  0  0  0
   -3.5388   -1.4802    0.9011 C   0  0  0  0  0  0  0  0  0  0  0  0
   -3.4637   -3.3519   -0.7274 C   0  0  0  0  0  0  0  0  0  0  0  0
   -0.9776    0.3666   -0.8518 C   0  0  0  0  0  0  0  0  0  0  0  0
   -2.2943    0.5479   -1.2785 C   0  0  0  0  0  0  0  0  0  0  0  0
   -0.1950    1.4713   -0.4706 C   0  0  0  0  0  0  0  0  0  0  0  0
    3.5256   -1.4198    0.9984 C   0  0  0  0  0  0  0  0  0  0  0  0
   -0.7505    2.7705   -0.5465 C   0  0  0  0  0  0  0  0  0  0  0  0
    2.8606   -0.2269    0.6852 C   0  0  0  0  0  0  0  0  0  0  0  0
    3.7424    0.8019    0.8936 C   0  0  0  0  0  0  0  0  0  0  0  0
    1.1993    1.1706    0.0137 C   0  0  0  0  0  0  0  0  0  0  0  0
    3.3471    2.1470    0.6477 C   0  0  0  0  0  0  0  0  0  0  0  0
   -5.6849   -2.7028    0.2612 N   0  0  0  0  0  0  0  0  0  0  0  0
    1.5480   -0.0651    0.2369 N   0  0  0  0  0  0  0  0  0  0  0  0
    2.0509    2.2517    0.1997 N   0  0  0  0  0  0  0  0  0  0  0  0
    4.7787   -1.1631    1.4039 N   0  0  0  0  0  0  0  0  0  0  0  0
    4.8869    0.1881    1.3307 N   0  0  0  0  0  0  0  0  0  0  0  0
   -3.0457   -1.9383   -0.4331 N   0  0  0  0  0  0  0  0  0  0  0  0
   -4.6517   -0.4796   -1.7676 O   0  0  0  0  0  0  0  0  0  0  0  0
   -2.6178   -1.4356   -2.9071 O   0  0  0  0  0  0  0  0  0  0  0  0
    0.0466    3.8256   -0.1780 O   0  0  0  0  0  0  0  0  0  0  0  0
    4.2935    3.4921    0.8600 S   0  0  0  0  0  0  0  0  0  0  0  0
   -3.2570   -0.8688   -1.7406 S   0  0  0  0  0  6  0  0  0  0  0  0
    3.1881   -3.7017   -2.4340 H   0  0  0  0  0  0  0  0  0  0  0  0
    1.8026   -3.0286   -1.5574 H   0  0  0  0  0  0  0  0  0  0  0  0
    3.2590   -2.0469   -1.8185 H   0  0  0  0  0  0  0  0  0  0  0  0
    0.3255    7.1539   -0.1106 H   0  0  0  0  0  0  0  0  0  0  0  0
    1.5426    5.9490   -0.5929 H   0  0  0  0  0  0  0  0  0  0  0  0
    0.9490    5.9694    1.0622 H   0  0  0  0  0  0  0  0  0  0  0  0
    6.8439    0.0003    2.0129 H   0  0  0  0  0  0  0  0  0  0  0  0
    6.5532    1.3243    0.8583 H   0  0  0  0  0  0  0  0  0  0  0  0
    5.9692    1.4501    2.5649 H   0  0  0  0  0  0  0  0  0  0  0  0
    4.5754   -3.5791   -0.3615 H   0  0  0  0  0  0  0  0  0  0  0  0
    3.1774   -4.6365   -0.1890 H   0  0  0  0  0  0  0  0  0  0  0  0
   -0.7209    5.3133   -1.4146 H   0  0  0  0  0  0  0  0  0  0  0  0
   -1.3214    5.3217    0.2810 H   0  0  0  0  0  0  0  0  0  0  0  0
    1.9131   -2.8113    0.9687 H   0  0  0  0  0  0  0  0  0  0  0  0
    3.3365   -3.3540    1.8337 H   0  0  0  0  0  0  0  0  0  0  0  0
   -3.8780    1.9657   -1.6716 H   0  0  0  0  0  0  0  0  0  0  0  0
   -2.5505    3.9037   -1.0385 H   0  0  0  0  0  0  0  0  0  0  0  0
   -5.3128   -1.7573    2.1040 H   0  0  0  0  0  0  0  0  0  0  0  0
   -5.5502   -0.6728    0.7543 H   0  0  0  0  0  0  0  0  0  0  0  0
   -5.1939   -4.6228   -0.4450 H   0  0  0  0  0  0  0  0  0  0  0  0
   -4.4064   -4.1746    1.0544 H   0  0  0  0  0  0  0  0  0  0  0  0
   -3.2250   -0.4530    1.1084 H   0  0  0  0  0  0  0  0  0  0  0  0
   -3.0433   -2.1021    1.6583 H   0  0  0  0  0  0  0  0  0  0  0  0
   -3.6727   -3.4763   -1.7956 H   0  0  0  0  0  0  0  0  0  0  0  0
   -2.6197   -4.0103   -0.4930 H   0  0  0  0  0  0  0  0  0  0  0  0
   -0.5654   -0.6418   -0.8190 H   0  0  0  0  0  0  0  0  0  0  0  0
   -5.8963   -2.3124   -0.6643 H   0  0  0  0  0  0  0  0  0  0  0  0
    1.6999    3.1861    0.0253 H   0  0  0  0  0  0  0  0  0  0  0  0
  1  4  1  0
  2  5  1  0
  3 26  1  0
  4  6  1  0
  5 30  1  0
  6 16  1  0
  7  8  2  0
  7 14  1  0
  8 17  1  0
  9 11  1  0
  9 22  1  0
 10 12  1  0
 10 22  1  0
 11 27  1  0
 12 27  1  0
 13 14  2  0
 13 15  1  0
 14 32  1  0
 15 17  2  0
 15 20  1  0
 16 18  1  0
 16 25  2  0
 17 30  1  0
 18 19  2  0
 18 23  1  0
 19 21  1  0
 19 26  1  0
 20 23  2  0
 20 24  1  0
 21 24  1  0
 21 31  2  0
 25 26  1  0
 27 32  1  0
 28 32  2  0
 29 32  2  0
  1 33  1  0
  1 34  1  0
  1 35  1  0
  2 36  1  0
  2 37  1  0
  2 38  1  0
  3 39  1  0
  3 40  1  0
  3 41  1  0
  4 42  1  0
  4 43  1  0
  5 44  1  0
  5 45  1  0
  6 46  1  0
  6 47  1  0
  7 48  1  0
  8 49  1  0
  9 50  1  0
  9 51  1  0
 10 52  1  0
 10 53  1  0
 11 54  1  0
 11 55  1  0
 12 56  1  0
 12 57  1  0
 13 58  1  0
 22 59  1  0
 24 60  1  0
M  END
