
     RDKit          3D

 52 54  0  0  0  0  0  0  0  0999 V2000
    7.1931    1.1190    1.6586 C   0  0  0  0  0  0  0  0  0  0  0  0
   -4.4139   -1.4218    0.3969 C   0  0  0  0  0  0  0  0  0  0  0  0
   -3.2278    0.6114    1.2636 C   0  0  0  0  0  0  0  0  0  0  0  0
   -4.3689    2.2205   -1.0270 C   0  0  0  0  0  0  0  0  0  0  0  0
   -5.5022    0.1718   -1.9153 C   0  0  0  0  0  0  0  0  0  0  0  0
    5.8184    0.5438    1.3542 C   0  0  0  0  0  0  0  0  0  0  0  0
    5.2282    1.1549    0.0830 C   0  0  0  0  0  0  0  0  0  0  0  0
   -0.3051   -3.4313    0.4561 C   0  0  0  0  0  0  0  0  0  0  0  0
    0.9389   -3.3141    1.0612 C   0  0  0  0  0  0  0  0  0  0  0  0
    3.8929    0.5290   -0.3248 C   0  0  0  0  0  0  0  0  0  0  0  0
   -0.8926   -2.3317   -0.1800 C   0  0  0  0  0  0  0  0  0  0  0  0
    1.6301   -2.1021    1.0392 C   0  0  0  0  0  0  0  0  0  0  0  0
    2.7671    0.8094    0.6697 C   0  0  0  0  0  0  0  0  0  0  0  0
    0.5670    1.0123   -0.4840 C   0  0  0  0  0  0  0  0  0  0  0  0
   -0.2313   -1.0826   -0.2055 C   0  0  0  0  0  0  0  0  0  0  0  0
   -0.5350    0.2143   -0.7463 C   0  0  0  0  0  0  0  0  0  0  0  0
    1.0322   -1.0028    0.3987 C   0  0  0  0  0  0  0  0  0  0  0  0
   -1.7067    0.7166   -1.4589 C   0  0  0  0  0  0  0  0  0  0  0  0
   -2.9892   -0.0268   -1.2884 C   0  0  0  0  0  0  0  0  0  0  0  0
   -3.7504   -0.1087    0.0374 C   0  0  0  0  0  0  0  0  0  0  0  0
   -4.3244    0.7094   -1.1294 C   0  0  0  0  0  0  0  0  0  0  0  0
    1.4902    0.2825    0.2087 N   0  0  0  0  0  0  0  0  0  0  0  0
   -1.6627    1.6995   -2.1918 O   0  0  0  0  0  0  0  0  0  0  0  0
    7.5983    0.6708    2.5710 H   0  0  0  0  0  0  0  0  0  0  0  0
    7.1404    2.2026    1.8062 H   0  0  0  0  0  0  0  0  0  0  0  0
    7.8928    0.9164    0.8418 H   0  0  0  0  0  0  0  0  0  0  0  0
   -4.5559   -2.0733   -0.4702 H   0  0  0  0  0  0  0  0  0  0  0  0
   -5.3913   -1.2364    0.8536 H   0  0  0  0  0  0  0  0  0  0  0  0
   -3.8040   -1.9792    1.1160 H   0  0  0  0  0  0  0  0  0  0  0  0
   -2.6085    1.4812    1.0312 H   0  0  0  0  0  0  0  0  0  0  0  0
   -2.6129   -0.0633    1.8690 H   0  0  0  0  0  0  0  0  0  0  0  0
   -4.0661    0.9505    1.8818 H   0  0  0  0  0  0  0  0  0  0  0  0
   -4.4220    2.6659   -2.0261 H   0  0  0  0  0  0  0  0  0  0  0  0
   -3.5001    2.6553   -0.5279 H   0  0  0  0  0  0  0  0  0  0  0  0
   -5.2601    2.5297   -0.4703 H   0  0  0  0  0  0  0  0  0  0  0  0
   -5.3926   -0.8854   -2.1757 H   0  0  0  0  0  0  0  0  0  0  0  0
   -6.4247    0.2881   -1.3382 H   0  0  0  0  0  0  0  0  0  0  0  0
   -5.6159    0.7213   -2.8557 H   0  0  0  0  0  0  0  0  0  0  0  0
    5.9005   -0.5433    1.2422 H   0  0  0  0  0  0  0  0  0  0  0  0
    5.1621    0.7352    2.2095 H   0  0  0  0  0  0  0  0  0  0  0  0
    5.9364    1.0167   -0.7429 H   0  0  0  0  0  0  0  0  0  0  0  0
    5.1037    2.2368    0.2135 H   0  0  0  0  0  0  0  0  0  0  0  0
   -0.8268   -4.3848    0.4718 H   0  0  0  0  0  0  0  0  0  0  0  0
    1.3850   -4.1770    1.5500 H   0  0  0  0  0  0  0  0  0  0  0  0
    3.6121    0.9271   -1.3087 H   0  0  0  0  0  0  0  0  0  0  0  0
    4.0192   -0.5526   -0.4575 H   0  0  0  0  0  0  0  0  0  0  0  0
   -1.8577   -2.4633   -0.6562 H   0  0  0  0  0  0  0  0  0  0  0  0
    2.6084   -2.0250    1.5031 H   0  0  0  0  0  0  0  0  0  0  0  0
    2.9680    0.3671    1.6508 H   0  0  0  0  0  0  0  0  0  0  0  0
    2.6413    1.8884    0.8188 H   0  0  0  0  0  0  0  0  0  0  0  0
    0.7463    2.0499   -0.7394 H   0  0  0  0  0  0  0  0  0  0  0  0
   -3.0236   -0.8919   -1.9459 H   0  0  0  0  0  0  0  0  0  0  0  0
  1  6  1  0
  2 20  1  0
  3 20  1  0
  4 21  1  0
  5 21  1  0
  6  7  1  0
  7 10  1  0
  8  9  2  0
  8 11  1  0
  9 12  1  0
 10 13  1  0
 11 15  2  0
 12 17  2  0
 13 22  1  0
 14 16  2  0
 14 22  1  0
 15 16  1  0
 15 17  1  0
 16 18  1  0
 17 22  1  0
 18 19  1  0
 18 23  2  0
 19 20  1  0
 19 21  1  0
 20 21  1  0
  1 24  1  0
  1 25  1  0
  1 26  1  0
  2 27  1  0
  2 28  1  0
  2 29  1  0
  3 30  1  0
  3 31  1  0
  3 32  1  0
  4 33  1  0
  4 34  1  0
  4 35  1  0
  5 36  1  0
  5 37  1  0
  5 38  1  0
  6 39  1  0
  6 40  1  0
  7 41  1  0
  7 42  1  0
  8 43  1  0
  9 44  1  0
 10 45  1  0
 10 46  1  0
 11 47  1  0
 12 48  1  0
 13 49  1  0
 13 50  1  0
 14 51  1  0
 19 52  1  0
M  END
