
     RDKit          3D

 53 55  0  0  0  0  0  0  0  0999 V2000
    6.6315    0.8078    1.0584 C   0  0  0  0  0  0  0  0  0  0  0  0
   -4.1161   -0.4355    3.0423 C   0  0  0  0  0  0  0  0  0  0  0  0
   -2.8986    2.1756   -2.4450 C   0  0  0  0  0  0  0  0  0  0  0  0
   -2.2077    2.1778   -0.0645 C   0  0  0  0  0  0  0  0  0  0  0  0
    5.1453    0.8249    1.3806 C   0  0  0  0  0  0  0  0  0  0  0  0
    4.2497    0.6216    0.1557 C   0  0  0  0  0  0  0  0  0  0  0  0
    4.3816   -0.7732   -0.4659 C   0  0  0  0  0  0  0  0  0  0  0  0
    3.4663   -0.9758   -1.6799 C   0  0  0  0  0  0  0  0  0  0  0  0
   -4.7323   -0.0246    0.6663 C   0  0  0  0  0  0  0  0  0  0  0  0
   -4.4757    0.0214   -0.8078 C   0  0  0  0  0  0  0  0  0  0  0  0
   -2.4487   -0.8974    1.1697 C   0  0  0  0  0  0  0  0  0  0  0  0
    1.4424   -2.1004   -0.6660 C   0  0  0  0  0  0  0  0  0  0  0  0
    1.1621    0.0588   -1.6897 C   0  0  0  0  0  0  0  0  0  0  0  0
   -3.8238   -0.4249    1.5693 C   0  0  0  0  0  0  0  0  0  0  0  0
    1.9975   -1.0078   -1.3388 C   0  0  0  0  0  0  0  0  0  0  0  0
   -2.2290   -1.0597   -0.3508 C   0  0  0  0  0  0  0  0  0  0  0  0
   -2.9936   -0.0443   -1.2206 C   0  0  0  0  0  0  0  0  0  0  0  0
    0.0814   -2.1109   -0.3545 C   0  0  0  0  0  0  0  0  0  0  0  0
   -0.1995    0.0464   -1.3669 C   0  0  0  0  0  0  0  0  0  0  0  0
   -0.7591   -1.0410   -0.6948 C   0  0  0  0  0  0  0  0  0  0  0  0
   -2.2529    1.3181   -1.3345 C   0  0  0  0  0  0  0  0  0  0  0  0
   -0.4546   -3.1917    0.2912 O   0  0  0  0  0  0  0  0  0  0  0  0
   -0.8935    1.1435   -1.7878 O   0  0  0  0  0  0  0  0  0  0  0  0
    6.9583   -0.1798    0.7207 H   0  0  0  0  0  0  0  0  0  0  0  0
    6.8737    1.5386    0.2804 H   0  0  0  0  0  0  0  0  0  0  0  0
    7.2117    1.0598    1.9520 H   0  0  0  0  0  0  0  0  0  0  0  0
   -5.1256   -0.0741    3.2648 H   0  0  0  0  0  0  0  0  0  0  0  0
   -3.4072    0.2078    3.5736 H   0  0  0  0  0  0  0  0  0  0  0  0
   -4.0303   -1.4519    3.4399 H   0  0  0  0  0  0  0  0  0  0  0  0
   -3.8996    2.5260   -2.1787 H   0  0  0  0  0  0  0  0  0  0  0  0
   -2.9629    1.6142   -3.3843 H   0  0  0  0  0  0  0  0  0  0  0  0
   -2.2836    3.0577   -2.6625 H   0  0  0  0  0  0  0  0  0  0  0  0
   -1.7252    3.1411   -0.2734 H   0  0  0  0  0  0  0  0  0  0  0  0
   -1.5983    1.7246    0.7197 H   0  0  0  0  0  0  0  0  0  0  0  0
   -3.2056    2.3886    0.3295 H   0  0  0  0  0  0  0  0  0  0  0  0
    4.9260    0.0600    2.1346 H   0  0  0  0  0  0  0  0  0  0  0  0
    4.8996    1.7937    1.8318 H   0  0  0  0  0  0  0  0  0  0  0  0
    3.2128    0.7865    0.4706 H   0  0  0  0  0  0  0  0  0  0  0  0
    4.4779    1.3858   -0.5972 H   0  0  0  0  0  0  0  0  0  0  0  0
    5.4139   -0.9246   -0.8015 H   0  0  0  0  0  0  0  0  0  0  0  0
    4.1802   -1.5366    0.2952 H   0  0  0  0  0  0  0  0  0  0  0  0
    3.7230   -1.9255   -2.1670 H   0  0  0  0  0  0  0  0  0  0  0  0
    3.6654   -0.1965   -2.4263 H   0  0  0  0  0  0  0  0  0  0  0  0
   -5.7233    0.2847    0.9922 H   0  0  0  0  0  0  0  0  0  0  0  0
   -4.9595    0.9108   -1.2210 H   0  0  0  0  0  0  0  0  0  0  0  0
   -5.0009   -0.8352   -1.2510 H   0  0  0  0  0  0  0  0  0  0  0  0
   -2.2686   -1.8682    1.6504 H   0  0  0  0  0  0  0  0  0  0  0  0
   -1.7067   -0.2170    1.6036 H   0  0  0  0  0  0  0  0  0  0  0  0
    2.0780   -2.9379   -0.3933 H   0  0  0  0  0  0  0  0  0  0  0  0
    1.5667    0.9199   -2.2177 H   0  0  0  0  0  0  0  0  0  0  0  0
   -2.6235   -2.0485   -0.6314 H   0  0  0  0  0  0  0  0  0  0  0  0
   -2.9830   -0.4612   -2.2415 H   0  0  0  0  0  0  0  0  0  0  0  0
    0.2439   -3.8515    0.4307 H   0  0  0  0  0  0  0  0  0  0  0  0
  1  5  1  0
  2 14  1  0
  3 21  1  0
  4 21  1  0
  5  6  1  0
  6  7  1  0
  7  8  1  0
  8 15  1  0
  9 10  1  0
  9 14  2  0
 10 17  1  0
 11 14  1  0
 11 16  1  0
 12 15  2  0
 12 18  1  0
 13 15  1  0
 13 19  2  0
 16 17  1  0
 16 20  1  0
 17 21  1  0
 18 20  2  0
 18 22  1  0
 19 20  1  0
 19 23  1  0
 21 23  1  0
  1 24  1  0
  1 25  1  0
  1 26  1  0
  2 27  1  0
  2 28  1  0
  2 29  1  0
  3 30  1  0
  3 31  1  0
  3 32  1  0
  4 33  1  0
  4 34  1  0
  4 35  1  0
  5 36  1  0
  5 37  1  0
  6 38  1  0
  6 39  1  0
  7 40  1  0
  7 41  1  0
  8 42  1  0
  8 43  1  0
  9 44  1  0
 10 45  1  0
 10 46  1  0
 11 47  1  0
 11 48  1  0
 12 49  1  0
 13 50  1  0
 16 51  1  0
 17 52  1  0
 22 53  1  0
M  END
