
     RDKit          3D

 58 62  0  0  0  0  0  0  0  0999 V2000
    8.4318    0.2159   -1.6548 C   0  0  0  0  0  0  0  0  0  0  0  0
    7.5521   -0.8106   -1.8749 C   0  0  0  0  0  0  0  0  0  0  0  0
    7.9864    1.1805   -0.7904 C   0  0  0  0  0  0  0  0  0  0  0  0
   -0.0176    0.4124    2.0332 C   0  0  0  0  0  0  0  0  0  0  0  0
    1.0165   -0.5804    1.4696 C   0  0  0  0  0  0  0  0  0  0  0  0
    2.9020    0.9876    1.4666 C   0  0  0  0  0  0  0  0  0  0  0  0
    3.3034   -1.4228    1.5364 C   0  0  0  0  0  0  0  0  0  0  0  0
    4.4181    1.0312    1.1657 C   0  0  0  0  0  0  0  0  0  0  0  0
    4.0415   -1.2410    0.1887 C   0  0  0  0  0  0  0  0  0  0  0  0
   -5.2727   -1.7641   -0.9639 C   0  0  0  0  0  0  0  0  0  0  0  0
   -5.3262    0.4584   -2.1244 C   0  0  0  0  0  0  0  0  0  0  0  0
   -6.1631    0.2538    0.2302 C   0  0  0  0  0  0  0  0  0  0  0  0
   -3.1326   -0.5456   -1.4389 C   0  0  0  0  0  0  0  0  0  0  0  0
   -3.9697   -0.7445    0.9182 C   0  0  0  0  0  0  0  0  0  0  0  0
   -4.0267    1.4820   -0.2386 C   0  0  0  0  0  0  0  0  0  0  0  0
   -4.5435   -0.8569   -1.9677 C   0  0  0  0  0  0  0  0  0  0  0  0
   -5.3821   -1.0597    0.3978 C   0  0  0  0  0  0  0  0  0  0  0  0
   -5.4385    1.1727   -0.7666 C   0  0  0  0  0  0  0  0  0  0  0  0
   -1.8101    0.5024    0.4288 C   0  0  0  0  0  0  0  0  0  0  0  0
    5.9788    0.0979   -0.4560 C   0  0  0  0  0  0  0  0  0  0  0  0
   -3.2123    0.1771   -0.0726 C   0  0  0  0  0  0  0  0  0  0  0  0
   -1.3546    0.0803    1.5480 N   0  0  0  0  0  0  0  0  0  0  0  0
    6.3387   -0.8884   -1.2965 N   0  0  0  0  0  0  0  0  0  0  0  0
    6.7815    1.1439   -0.1905 N   0  0  0  0  0  0  0  0  0  0  0  0
    2.3915   -0.3247    1.9316 N   0  0  0  0  0  0  0  0  0  0  0  0
    4.7336    0.0480    0.1328 N   0  0  0  0  0  0  0  0  0  0  0  0
   -1.1109    1.2674   -0.4301 O   0  0  0  0  0  0  0  0  0  0  0  0
    9.4020    0.2617   -2.1270 H   0  0  0  0  0  0  0  0  0  0  0  0
    7.7980   -1.6300   -2.5435 H   0  0  0  0  0  0  0  0  0  0  0  0
    8.5990    2.0421   -0.5432 H   0  0  0  0  0  0  0  0  0  0  0  0
   -0.0291    0.3347    3.1273 H   0  0  0  0  0  0  0  0  0  0  0  0
    0.2387    1.4548    1.8155 H   0  0  0  0  0  0  0  0  0  0  0  0
    0.9753   -0.5879    0.3727 H   0  0  0  0  0  0  0  0  0  0  0  0
    0.7074   -1.5828    1.7950 H   0  0  0  0  0  0  0  0  0  0  0  0
    2.3845    1.2900    0.5457 H   0  0  0  0  0  0  0  0  0  0  0  0
    2.6701    1.7404    2.2285 H   0  0  0  0  0  0  0  0  0  0  0  0
    2.7860   -2.3900    1.5443 H   0  0  0  0  0  0  0  0  0  0  0  0
    4.0626   -1.5010    2.3265 H   0  0  0  0  0  0  0  0  0  0  0  0
    4.9920    0.8296    2.0789 H   0  0  0  0  0  0  0  0  0  0  0  0
    4.6599    2.0474    0.8303 H   0  0  0  0  0  0  0  0  0  0  0  0
    4.7285   -2.0897    0.0818 H   0  0  0  0  0  0  0  0  0  0  0  0
    3.3217   -1.2917   -0.6369 H   0  0  0  0  0  0  0  0  0  0  0  0
   -4.7317   -2.7121   -0.8536 H   0  0  0  0  0  0  0  0  0  0  0  0
   -6.2733   -2.0107   -1.3394 H   0  0  0  0  0  0  0  0  0  0  0  0
   -6.3273    0.2520   -2.5226 H   0  0  0  0  0  0  0  0  0  0  0  0
   -4.8233    1.1096   -2.8499 H   0  0  0  0  0  0  0  0  0  0  0  0
   -7.1791    0.0426   -0.1253 H   0  0  0  0  0  0  0  0  0  0  0  0
   -6.2631    0.7576    1.1996 H   0  0  0  0  0  0  0  0  0  0  0  0
   -2.5542   -1.4738   -1.3423 H   0  0  0  0  0  0  0  0  0  0  0  0
   -2.5997    0.0717   -2.1736 H   0  0  0  0  0  0  0  0  0  0  0  0
   -3.4161   -1.6812    1.0668 H   0  0  0  0  0  0  0  0  0  0  0  0
   -4.0415   -0.2675    1.9047 H   0  0  0  0  0  0  0  0  0  0  0  0
   -3.5219    2.1676   -0.9316 H   0  0  0  0  0  0  0  0  0  0  0  0
   -4.0925    2.0113    0.7211 H   0  0  0  0  0  0  0  0  0  0  0  0
   -4.4713   -1.3618   -2.9374 H   0  0  0  0  0  0  0  0  0  0  0  0
   -5.9019   -1.7107    1.1097 H   0  0  0  0  0  0  0  0  0  0  0  0
   -6.0007    2.1058   -0.8844 H   0  0  0  0  0  0  0  0  0  0  0  0
   -0.2144    1.4467   -0.1193 H   0  0  0  0  0  0  0  0  0  0  0  0
  1  2  2  0
  1  3  1  0
  2 23  1  0
  3 24  2  0
  4  5  1  0
  4 22  1  0
  5 25  1  0
  6  8  1  0
  6 25  1  0
  7  9  1  0
  7 25  1  0
  8 26  1  0
  9 26  1  0
 10 16  1  0
 10 17  1  0
 11 16  1  0
 11 18  1  0
 12 17  1  0
 12 18  1  0
 13 16  1  0
 13 21  1  0
 14 17  1  0
 14 21  1  0
 15 18  1  0
 15 21  1  0
 19 21  1  0
 19 22  2  3
 19 27  1  0
 20 23  2  0
 20 24  1  0
 20 26  1  0
  1 28  1  0
  2 29  1  0
  3 30  1  0
  4 31  1  0
  4 32  1  0
  5 33  1  0
  5 34  1  0
  6 35  1  0
  6 36  1  0
  7 37  1  0
  7 38  1  0
  8 39  1  0
  8 40  1  0
  9 41  1  0
  9 42  1  0
 10 43  1  0
 10 44  1  0
 11 45  1  0
 11 46  1  0
 12 47  1  0
 12 48  1  0
 13 49  1  0
 13 50  1  0
 14 51  1  0
 14 52  1  0
 15 53  1  0
 15 54  1  0
 16 55  1  0
 17 56  1  0
 18 57  1  0
 27 58  1  0
M  END
