
     RDKit          3D

 51 54  0  0  0  0  0  0  0  0999 V2000
   -0.0984   -2.8438   -0.6600 C   0  0  0  0  0  0  0  0  0  0  0  0
    6.6138    0.5054    0.4555 C   0  0  0  0  0  0  0  0  0  0  0  0
    5.8318    0.1899    1.7317 C   0  0  0  0  0  0  0  0  0  0  0  0
    6.0122    1.7015   -0.2656 C   0  0  0  0  0  0  0  0  0  0  0  0
   -3.9748   -1.7716    0.5992 C   0  0  0  0  0  0  0  0  0  0  0  0
   -3.4139   -2.2862   -1.6952 C   0  0  0  0  0  0  0  0  0  0  0  0
   -4.7361    2.3714   -0.9095 C   0  0  0  0  0  0  0  0  0  0  0  0
   -5.1816   -2.4623    0.4599 C   0  0  0  0  0  0  0  0  0  0  0  0
   -4.6198   -2.9777   -1.8367 C   0  0  0  0  0  0  0  0  0  0  0  0
   -3.7558    1.3759   -0.8967 C   0  0  0  0  0  0  0  0  0  0  0  0
    4.4054    0.7471    1.7149 C   0  0  0  0  0  0  0  0  0  0  0  0
    4.5300    1.4721   -0.5877 C   0  0  0  0  0  0  0  0  0  0  0  0
   -3.6568    3.4570    0.9568 C   0  0  0  0  0  0  0  0  0  0  0  0
   -0.5262   -1.4455   -0.3832 C   0  0  0  0  0  0  0  0  0  0  0  0
   -3.0866   -1.6706   -0.4797 C   0  0  0  0  0  0  0  0  0  0  0  0
   -4.6801    3.4084    0.0149 C   0  0  0  0  0  0  0  0  0  0  0  0
   -5.5000   -3.0608   -0.7585 C   0  0  0  0  0  0  0  0  0  0  0  0
   -2.6702    2.4612    0.9805 C   0  0  0  0  0  0  0  0  0  0  0  0
   -2.7125    1.4089    0.0474 C   0  0  0  0  0  0  0  0  0  0  0  0
    0.3193   -0.3395   -0.0658 C   0  0  0  0  0  0  0  0  0  0  0  0
   -1.8229   -0.9440   -0.3373 C   0  0  0  0  0  0  0  0  0  0  0  0
    1.7802   -0.3036    0.0203 C   0  0  0  0  0  0  0  0  0  0  0  0
   -5.8878    4.6329   -0.0020 Cl  0  0  0  0  0  0  0  0  0  0  0  0
   -1.5415    2.5599    2.2906 Cl  0  0  0  0  0  0  0  0  0  0  0  0
   -7.2950   -4.0861   -0.9676 I   0  0  0  0  0  0  0  0  0  0  0  0
   -0.4137    0.7557    0.1789 N   0  0  0  0  0  0  0  0  0  0  0  0
    2.4483    0.7614    0.3427 N   0  0  0  0  0  0  0  0  0  0  0  0
    3.8116    0.6001    0.3742 N   0  0  0  0  0  0  0  0  0  0  0  0
   -1.7017    0.4037   -0.0017 N   0  0  0  0  0  0  0  0  0  0  0  0
    2.4419   -1.4503   -0.2625 O   0  0  0  0  0  0  0  0  0  0  0  0
    0.5233   -3.2244    0.1568 H   0  0  0  0  0  0  0  0  0  0  0  0
   -0.9482   -3.5249   -0.7591 H   0  0  0  0  0  0  0  0  0  0  0  0
    0.4754   -2.8891   -1.5910 H   0  0  0  0  0  0  0  0  0  0  0  0
    6.5891   -0.3665   -0.2103 H   0  0  0  0  0  0  0  0  0  0  0  0
    7.6673    0.6875    0.6949 H   0  0  0  0  0  0  0  0  0  0  0  0
    5.8103   -0.8979    1.8719 H   0  0  0  0  0  0  0  0  0  0  0  0
    6.3592    0.6047    2.5991 H   0  0  0  0  0  0  0  0  0  0  0  0
    6.5652    1.9043   -1.1896 H   0  0  0  0  0  0  0  0  0  0  0  0
    6.1161    2.5914    0.3683 H   0  0  0  0  0  0  0  0  0  0  0  0
   -3.7328   -1.3190    1.5590 H   0  0  0  0  0  0  0  0  0  0  0  0
   -2.7333   -2.2265   -2.5421 H   0  0  0  0  0  0  0  0  0  0  0  0
   -5.5299    2.3367   -1.6519 H   0  0  0  0  0  0  0  0  0  0  0  0
   -5.8570   -2.5269    1.3094 H   0  0  0  0  0  0  0  0  0  0  0  0
   -4.8556   -3.4452   -2.7894 H   0  0  0  0  0  0  0  0  0  0  0  0
   -3.8020    0.6127   -1.6691 H   0  0  0  0  0  0  0  0  0  0  0  0
    3.8128    0.1915    2.4523 H   0  0  0  0  0  0  0  0  0  0  0  0
    4.3908    1.7984    2.0308 H   0  0  0  0  0  0  0  0  0  0  0  0
    4.4464    1.0084   -1.5781 H   0  0  0  0  0  0  0  0  0  0  0  0
    4.0395    2.4519   -0.6559 H   0  0  0  0  0  0  0  0  0  0  0  0
   -3.6332    4.2636    1.6859 H   0  0  0  0  0  0  0  0  0  0  0  0
    3.3778   -1.2015   -0.1494 H   0  0  0  0  0  0  0  0  0  0  0  0
  1 14  1  0
  2  3  1  0
  2  4  1  0
  3 11  1  0
  4 12  1  0
  5  8  2  0
  5 15  1  0
  6  9  1  0
  6 15  2  0
  7 10  2  0
  7 16  1  0
  8 17  1  0
  9 17  2  0
 10 19  1  0
 11 28  1  0
 12 28  1  0
 13 16  2  0
 13 18  1  0
 14 20  1  0
 14 21  2  0
 15 21  1  0
 16 23  1  0
 17 25  1  0
 18 19  2  0
 18 24  1  0
 19 29  1  0
 20 22  1  0
 20 26  2  0
 21 29  1  0
 22 27  2  3
 22 30  1  0
 26 29  1  0
 27 28  1  0
  1 31  1  0
  1 32  1  0
  1 33  1  0
  2 34  1  0
  2 35  1  0
  3 36  1  0
  3 37  1  0
  4 38  1  0
  4 39  1  0
  5 40  1  0
  6 41  1  0
  7 42  1  0
  8 43  1  0
  9 44  1  0
 10 45  1  0
 11 46  1  0
 11 47  1  0
 12 48  1  0
 12 49  1  0
 13 50  1  0
 30 51  1  0
M  END
