
     RDKit          3D

 54 57  0  0  0  0  0  0  0  0999 V2000
   -2.8301   -1.3771   -1.8073 C   0  0  0  0  0  0  0  0  0  0  0  0
    2.1773   -0.5925   -1.8170 C   0  0  0  0  0  0  0  0  0  0  0  0
   -2.4621   -1.9747    1.2834 C   0  0  0  0  0  0  0  0  0  0  0  0
   -1.0100   -1.6242    1.5371 C   0  0  0  0  0  0  0  0  0  0  0  0
    1.6230   -0.5037    1.9288 C   0  0  0  0  0  0  0  0  0  0  0  0
    3.0019    0.1419    1.7965 C   0  0  0  0  0  0  0  0  0  0  0  0
   -4.7046    0.9991   -1.0562 C   0  0  0  0  0  0  0  0  0  0  0  0
   -0.3778    1.1791   -0.1886 C   0  0  0  0  0  0  0  0  0  0  0  0
   -3.1825    1.0199   -1.1062 C   0  0  0  0  0  0  0  0  0  0  0  0
    1.1355    1.3039   -0.4507 C   0  0  0  0  0  0  0  0  0  0  0  0
   -4.3393   -0.3909    1.0664 C   0  0  0  0  0  0  0  0  0  0  0  0
    5.4777    1.5693    0.6685 C   0  0  0  0  0  0  0  0  0  0  0  0
   -3.1666   -0.8436    0.5857 C   0  0  0  0  0  0  0  0  0  0  0  0
   -5.1631    0.5906    0.3202 C   0  0  0  0  0  0  0  0  0  0  0  0
   -0.2473   -1.2980    0.2406 C   0  0  0  0  0  0  0  0  0  0  0  0
    1.2616   -1.0360    0.5272 C   0  0  0  0  0  0  0  0  0  0  0  0
   -0.9414   -0.1856   -0.6057 C   0  0  0  0  0  0  0  0  0  0  0  0
    3.3297    0.1447    0.3010 C   0  0  0  0  0  0  0  0  0  0  0  0
    4.1889    1.3368   -0.1174 C   0  0  0  0  0  0  0  0  0  0  0  0
   -2.5219   -0.3298   -0.7002 C   0  0  0  0  0  0  0  0  0  0  0  0
    1.9511   -0.0176   -0.4059 C   0  0  0  0  0  0  0  0  0  0  0  0
    6.3185    2.5162    0.0256 O   0  0  0  0  0  0  0  0  0  0  0  0
   -6.2204    0.9850    0.8059 O   0  0  0  0  0  0  0  0  0  0  0  0
    3.9129    2.0686   -1.0708 O   0  0  0  0  0  0  0  0  0  0  0  0
   -3.8969   -1.6215   -1.8610 H   0  0  0  0  0  0  0  0  0  0  0  0
   -2.2956   -2.3185   -1.6400 H   0  0  0  0  0  0  0  0  0  0  0  0
   -2.5289   -1.0044   -2.7934 H   0  0  0  0  0  0  0  0  0  0  0  0
    1.2472   -0.8263   -2.3375 H   0  0  0  0  0  0  0  0  0  0  0  0
    2.7573   -1.5218   -1.7755 H   0  0  0  0  0  0  0  0  0  0  0  0
    2.7332    0.1101   -2.4467 H   0  0  0  0  0  0  0  0  0  0  0  0
   -2.9423   -2.2125    2.2406 H   0  0  0  0  0  0  0  0  0  0  0  0
   -2.5281   -2.8825    0.6721 H   0  0  0  0  0  0  0  0  0  0  0  0
   -0.5272   -2.4690    2.0438 H   0  0  0  0  0  0  0  0  0  0  0  0
   -0.9837   -0.7753    2.2298 H   0  0  0  0  0  0  0  0  0  0  0  0
    1.6334   -1.3059    2.6743 H   0  0  0  0  0  0  0  0  0  0  0  0
    0.9183    0.2586    2.2760 H   0  0  0  0  0  0  0  0  0  0  0  0
    2.9861    1.1517    2.2223 H   0  0  0  0  0  0  0  0  0  0  0  0
    3.7537   -0.4295    2.3527 H   0  0  0  0  0  0  0  0  0  0  0  0
   -5.0839    2.0061   -1.2625 H   0  0  0  0  0  0  0  0  0  0  0  0
   -5.1343    0.3154   -1.7939 H   0  0  0  0  0  0  0  0  0  0  0  0
   -0.5937    1.3636    0.8701 H   0  0  0  0  0  0  0  0  0  0  0  0
   -0.8433    1.9973   -0.7461 H   0  0  0  0  0  0  0  0  0  0  0  0
   -2.8723    1.8093   -0.4103 H   0  0  0  0  0  0  0  0  0  0  0  0
   -2.8514    1.3229   -2.1070 H   0  0  0  0  0  0  0  0  0  0  0  0
    1.2731    1.7741   -1.4335 H   0  0  0  0  0  0  0  0  0  0  0  0
    1.5240    2.0327    0.2718 H   0  0  0  0  0  0  0  0  0  0  0  0
   -4.7877   -0.7688    1.9788 H   0  0  0  0  0  0  0  0  0  0  0  0
    6.0272    0.6282    0.7522 H   0  0  0  0  0  0  0  0  0  0  0  0
    5.2319    1.9482    1.6634 H   0  0  0  0  0  0  0  0  0  0  0  0
   -0.2823   -2.2053   -0.3805 H   0  0  0  0  0  0  0  0  0  0  0  0
    1.7707   -2.0076    0.4297 H   0  0  0  0  0  0  0  0  0  0  0  0
   -0.6036   -0.3082   -1.6417 H   0  0  0  0  0  0  0  0  0  0  0  0
    3.9405   -0.7455    0.0896 H   0  0  0  0  0  0  0  0  0  0  0  0
    5.7477    3.0030   -0.6042 H   0  0  0  0  0  0  0  0  0  0  0  0
  1 20  1  0
  2 21  1  0
  3  4  1  0
  3 13  1  0
  4 15  1  0
  5  6  1  0
  5 16  1  0
  6 18  1  0
  7  9  1  0
  7 14  1  0
  8 10  1  0
  8 17  1  0
  9 20  1  0
 10 21  1  0
 11 13  2  0
 11 14  1  0
 12 19  1  0
 12 22  1  0
 13 20  1  0
 14 23  2  0
 15 16  1  0
 15 17  1  0
 16 21  1  0
 17 20  1  0
 18 19  1  0
 18 21  1  0
 19 24  2  0
  1 25  1  0
  1 26  1  0
  1 27  1  0
  2 28  1  0
  2 29  1  0
  2 30  1  0
  3 31  1  0
  3 32  1  0
  4 33  1  0
  4 34  1  0
  5 35  1  0
  5 36  1  0
  6 37  1  0
  6 38  1  0
  7 39  1  0
  7 40  1  0
  8 41  1  0
  8 42  1  0
  9 43  1  0
  9 44  1  0
 10 45  1  0
 10 46  1  0
 11 47  1  0
 12 48  1  0
 12 49  1  0
 15 50  1  0
 16 51  1  0
 17 52  1  0
 18 53  1  0
 22 54  1  0
M  END
