
     RDKit          3D

 51 54  0  0  0  0  0  0  0  0999 V2000
   -3.5982    2.4236    1.8259 C   0  0  0  0  0  0  0  0  0  0  0  0
   -4.8338   -0.8413   -3.2457 C   0  0  0  0  0  0  0  0  0  0  0  0
    1.3865   -1.2020    3.7164 C   0  0  0  0  0  0  0  0  0  0  0  0
   -4.0926    1.5404    0.9478 C   0  0  0  0  0  0  0  0  0  0  0  0
   -4.0961   -1.3553   -2.2524 C   0  0  0  0  0  0  0  0  0  0  0  0
    3.0699    0.2579   -3.3495 C   0  0  0  0  0  0  0  0  0  0  0  0
    2.0340   -0.0189   -2.4453 C   0  0  0  0  0  0  0  0  0  0  0  0
    4.3413    0.6689   -2.9166 C   0  0  0  0  0  0  0  0  0  0  0  0
   -3.3640    1.0428   -0.2664 C   0  0  0  0  0  0  0  0  0  0  0  0
   -4.3757   -1.1682   -0.7901 C   0  0  0  0  0  0  0  0  0  0  0  0
   -0.0455   -0.0585   -0.1635 C   0  0  0  0  0  0  0  0  0  0  0  0
    3.0789    0.5022    1.8264 C   0  0  0  0  0  0  0  0  0  0  0  0
    5.3059    1.1166    0.5634 C   0  0  0  0  0  0  0  0  0  0  0  0
   -0.3551   -1.1640    2.0645 C   0  0  0  0  0  0  0  0  0  0  0  0
    3.9930    0.7204    0.6693 C   0  0  0  0  0  0  0  0  0  0  0  0
   -1.0288   -0.3467    0.9450 C   0  0  0  0  0  0  0  0  0  0  0  0
    2.2384    0.1102   -1.0667 C   0  0  0  0  0  0  0  0  0  0  0  0
    1.2834   -0.1390    0.0379 C   0  0  0  0  0  0  0  0  0  0  0  0
    4.5301    0.7873   -1.5379 C   0  0  0  0  0  0  0  0  0  0  0  0
    1.8989   -0.4689    1.4359 C   0  0  0  0  0  0  0  0  0  0  0  0
    3.5103    0.5161   -0.6414 C   0  0  0  0  0  0  0  0  0  0  0  0
   -2.2263   -1.1298    0.3800 C   0  0  0  0  0  0  0  0  0  0  0  0
    5.6208    1.1534   -0.7788 N   0  0  0  0  0  0  0  0  0  0  0  0
    0.8813   -0.5006    2.5326 N   0  0  0  0  0  0  0  0  0  0  0  0
   -3.2750   -0.4143   -0.1999 N   0  0  0  0  0  0  0  0  0  0  0  0
   -2.2349   -2.3650    0.4019 O   0  0  0  0  0  0  0  0  0  0  0  0
   -4.1850    2.7436    2.6818 H   0  0  0  0  0  0  0  0  0  0  0  0
   -2.6026    2.8446    1.7188 H   0  0  0  0  0  0  0  0  0  0  0  0
   -5.7067   -0.2263   -3.0515 H   0  0  0  0  0  0  0  0  0  0  0  0
   -4.5738   -1.0318   -4.2826 H   0  0  0  0  0  0  0  0  0  0  0  0
    0.6197   -1.2331    4.4992 H   0  0  0  0  0  0  0  0  0  0  0  0
    2.2396   -0.6785    4.1577 H   0  0  0  0  0  0  0  0  0  0  0  0
    1.6862   -2.2320    3.4922 H   0  0  0  0  0  0  0  0  0  0  0  0
   -5.0993    1.1605    1.1067 H   0  0  0  0  0  0  0  0  0  0  0  0
   -3.2361   -1.9766   -2.4966 H   0  0  0  0  0  0  0  0  0  0  0  0
    2.8851    0.1467   -4.4162 H   0  0  0  0  0  0  0  0  0  0  0  0
    1.0739   -0.3498   -2.8306 H   0  0  0  0  0  0  0  0  0  0  0  0
    5.1349    0.8788   -3.6251 H   0  0  0  0  0  0  0  0  0  0  0  0
   -2.3701    1.4890   -0.3461 H   0  0  0  0  0  0  0  0  0  0  0  0
   -3.9123    1.3324   -1.1694 H   0  0  0  0  0  0  0  0  0  0  0  0
   -4.4743   -2.1504   -0.3157 H   0  0  0  0  0  0  0  0  0  0  0  0
   -5.3161   -0.6332   -0.6168 H   0  0  0  0  0  0  0  0  0  0  0  0
   -0.4515    0.2157   -1.1319 H   0  0  0  0  0  0  0  0  0  0  0  0
    2.6738    1.4719    2.1432 H   0  0  0  0  0  0  0  0  0  0  0  0
    3.6542    0.0895    2.6623 H   0  0  0  0  0  0  0  0  0  0  0  0
    6.0431    1.3782    1.3104 H   0  0  0  0  0  0  0  0  0  0  0  0
   -1.0701   -1.2455    2.8942 H   0  0  0  0  0  0  0  0  0  0  0  0
   -0.1334   -2.1905    1.7397 H   0  0  0  0  0  0  0  0  0  0  0  0
   -1.3699    0.5965    1.3789 H   0  0  0  0  0  0  0  0  0  0  0  0
    2.3231   -1.4801    1.3263 H   0  0  0  0  0  0  0  0  0  0  0  0
    6.5211    1.4132   -1.1566 H   0  0  0  0  0  0  0  0  0  0  0  0
  1  4  2  3
  2  5  2  3
  3 24  1  0
  4  9  1  0
  5 10  1  0
  6  7  2  0
  6  8  1  0
  7 17  1  0
  8 19  2  0
  9 25  1  0
 10 25  1  0
 11 16  1  0
 11 18  2  0
 12 15  1  0
 12 20  1  0
 13 15  2  0
 13 23  1  0
 14 16  1  0
 14 24  1  0
 15 21  1  0
 16 22  1  0
 17 18  1  0
 17 21  2  0
 18 20  1  0
 19 21  1  0
 19 23  1  0
 20 24  1  0
 22 25  1  0
 22 26  2  0
  1 27  1  0
  1 28  1  0
  2 29  1  0
  2 30  1  0
  3 31  1  0
  3 32  1  0
  3 33  1  0
  4 34  1  0
  5 35  1  0
  6 36  1  0
  7 37  1  0
  8 38  1  0
  9 39  1  0
  9 40  1  0
 10 41  1  0
 10 42  1  0
 11 43  1  0
 12 44  1  0
 12 45  1  0
 13 46  1  0
 14 47  1  0
 14 48  1  0
 16 49  1  0
 20 50  1  0
 23 51  1  0
M  END
