
     RDKit          3D

 55 57  0  0  0  0  0  0  0  0999 V2000
    4.7858    1.7626    0.1113 C   0  0  0  0  0  0  0  0  0  0  0  0
   -5.2895   -1.8065    1.0410 C   0  0  0  0  0  0  0  0  0  0  0  0
    3.5918   -2.7590   -0.6750 C   0  0  0  0  0  0  0  0  0  0  0  0
    3.9964   -0.6899   -1.9455 C   0  0  0  0  0  0  0  0  0  0  0  0
   -2.8457    0.2758   -2.1556 C   0  0  0  0  0  0  0  0  0  0  0  0
   -2.3321    2.7004   -2.0769 C   0  0  0  0  0  0  0  0  0  0  0  0
    4.4970    0.6483    1.0994 C   0  0  0  0  0  0  0  0  0  0  0  0
   -4.8098    0.6068    0.6674 C   0  0  0  0  0  0  0  0  0  0  0  0
    1.5374   -1.2455    1.0292 C   0  0  0  0  0  0  0  0  0  0  0  0
    0.2351   -0.8945    1.3961 C   0  0  0  0  0  0  0  0  0  0  0  0
   -3.9215    1.7956    0.4669 C   0  0  0  0  0  0  0  0  0  0  0  0
    4.5608   -0.7806    0.5363 C   0  0  0  0  0  0  0  0  0  0  0  0
   -2.8875   -0.9592    0.9357 C   0  0  0  0  0  0  0  0  0  0  0  0
    1.2883   -0.0203   -1.0146 C   0  0  0  0  0  0  0  0  0  0  0  0
   -4.3582   -0.6408    0.8690 C   0  0  0  0  0  0  0  0  0  0  0  0
    2.0974   -0.8141   -0.1859 C   0  0  0  0  0  0  0  0  0  0  0  0
   -0.5567   -0.1019    0.5559 C   0  0  0  0  0  0  0  0  0  0  0  0
   -1.9575    0.2723    0.9660 C   0  0  0  0  0  0  0  0  0  0  0  0
   -2.4502    1.4760    0.1430 C   0  0  0  0  0  0  0  0  0  0  0  0
   -0.0206    0.3273   -0.6542 C   0  0  0  0  0  0  0  0  0  0  0  0
    3.5344   -1.2096   -0.5623 C   0  0  0  0  0  0  0  0  0  0  0  0
   -2.0892    1.3515   -1.3650 C   0  0  0  0  0  0  0  0  0  0  0  0
   -0.6761    1.1183   -1.5527 O   0  0  0  0  0  0  0  0  0  0  0  0
    4.9684    2.6991    0.6489 H   0  0  0  0  0  0  0  0  0  0  0  0
    3.9333    1.9384   -0.5494 H   0  0  0  0  0  0  0  0  0  0  0  0
    5.6715    1.5433   -0.4923 H   0  0  0  0  0  0  0  0  0  0  0  0
   -6.3408   -1.5081    0.9711 H   0  0  0  0  0  0  0  0  0  0  0  0
   -5.1037   -2.5571    0.2660 H   0  0  0  0  0  0  0  0  0  0  0  0
   -5.1391   -2.2719    2.0204 H   0  0  0  0  0  0  0  0  0  0  0  0
    4.5908   -3.0955   -0.9768 H   0  0  0  0  0  0  0  0  0  0  0  0
    2.8756   -3.1294   -1.4185 H   0  0  0  0  0  0  0  0  0  0  0  0
    3.3599   -3.2548    0.2742 H   0  0  0  0  0  0  0  0  0  0  0  0
    5.0341   -0.9797   -2.1493 H   0  0  0  0  0  0  0  0  0  0  0  0
    3.9407    0.3961   -2.0371 H   0  0  0  0  0  0  0  0  0  0  0  0
    3.3829   -1.1099   -2.7523 H   0  0  0  0  0  0  0  0  0  0  0  0
   -3.9302    0.3976   -2.0876 H   0  0  0  0  0  0  0  0  0  0  0  0
   -2.5762   -0.7341   -1.8405 H   0  0  0  0  0  0  0  0  0  0  0  0
   -2.5735    0.3211   -3.2176 H   0  0  0  0  0  0  0  0  0  0  0  0
   -1.8181    3.5156   -1.5545 H   0  0  0  0  0  0  0  0  0  0  0  0
   -1.9177    2.6843   -3.0925 H   0  0  0  0  0  0  0  0  0  0  0  0
   -3.3936    2.9508   -2.1551 H   0  0  0  0  0  0  0  0  0  0  0  0
    3.5308    0.8328    1.5810 H   0  0  0  0  0  0  0  0  0  0  0  0
    5.2448    0.7134    1.9006 H   0  0  0  0  0  0  0  0  0  0  0  0
   -5.8806    0.8000    0.6472 H   0  0  0  0  0  0  0  0  0  0  0  0
    2.1153   -1.8594    1.7168 H   0  0  0  0  0  0  0  0  0  0  0  0
   -0.1545   -1.2422    2.3504 H   0  0  0  0  0  0  0  0  0  0  0  0
   -4.3629    2.4374   -0.3005 H   0  0  0  0  0  0  0  0  0  0  0  0
   -3.9550    2.3787    1.3969 H   0  0  0  0  0  0  0  0  0  0  0  0
    5.5793   -0.9626    0.1665 H   0  0  0  0  0  0  0  0  0  0  0  0
    4.4514   -1.4512    1.4004 H   0  0  0  0  0  0  0  0  0  0  0  0
   -2.6370   -1.6235    0.1004 H   0  0  0  0  0  0  0  0  0  0  0  0
   -2.6995   -1.5497    1.8431 H   0  0  0  0  0  0  0  0  0  0  0  0
    1.6534    0.3518   -1.9678 H   0  0  0  0  0  0  0  0  0  0  0  0
   -1.9120    0.6160    2.0112 H   0  0  0  0  0  0  0  0  0  0  0  0
   -1.8675    2.3400    0.5038 H   0  0  0  0  0  0  0  0  0  0  0  0
  1  7  1  0
  2 15  1  0
  3 21  1  0
  4 21  1  0
  5 22  1  0
  6 22  1  0
  7 12  1  0
  8 11  1  0
  8 15  2  0
  9 10  1  0
  9 16  2  0
 10 17  2  0
 11 19  1  0
 12 21  1  0
 13 15  1  0
 13 18  1  0
 14 16  1  0
 14 20  2  0
 16 21  1  0
 17 18  1  0
 17 20  1  0
 18 19  1  0
 19 22  1  0
 20 23  1  0
 22 23  1  0
  1 24  1  0
  1 25  1  0
  1 26  1  0
  2 27  1  0
  2 28  1  0
  2 29  1  0
  3 30  1  0
  3 31  1  0
  3 32  1  0
  4 33  1  0
  4 34  1  0
  4 35  1  0
  5 36  1  0
  5 37  1  0
  5 38  1  0
  6 39  1  0
  6 40  1  0
  6 41  1  0
  7 42  1  0
  7 43  1  0
  8 44  1  0
  9 45  1  0
 10 46  1  0
 11 47  1  0
 11 48  1  0
 12 49  1  0
 12 50  1  0
 13 51  1  0
 13 52  1  0
 14 53  1  0
 18 54  1  0
 19 55  1  0
M  END
