
     RDKit          3D

 57 60  0  0  0  0  0  0  0  0999 V2000
    5.4654   -2.4035    2.2060 C   0  0  0  0  0  0  0  0  0  0  0  0
   -2.9120    0.6878    2.1616 C   0  0  0  0  0  0  0  0  0  0  0  0
    1.5388    2.2736   -0.8431 C   0  0  0  0  0  0  0  0  0  0  0  0
    4.5256   -2.3744    1.0137 C   0  0  0  0  0  0  0  0  0  0  0  0
   -2.5458    1.9470   -0.9444 C   0  0  0  0  0  0  0  0  0  0  0  0
   -1.4534    1.2687   -1.7661 C   0  0  0  0  0  0  0  0  0  0  0  0
    1.2150   -0.0986   -2.7571 C   0  0  0  0  0  0  0  0  0  0  0  0
    2.7398    0.0273   -2.5732 C   0  0  0  0  0  0  0  0  0  0  0  0
   -4.8166   -1.3668    0.8892 C   0  0  0  0  0  0  0  0  0  0  0  0
   -0.1587    0.7858    1.2916 C   0  0  0  0  0  0  0  0  0  0  0  0
   -3.2968   -1.3682    0.7491 C   0  0  0  0  0  0  0  0  0  0  0  0
    1.3269    0.5423    0.9600 C   0  0  0  0  0  0  0  0  0  0  0  0
   -4.6573    0.6908   -0.6514 C   0  0  0  0  0  0  0  0  0  0  0  0
   -3.3838    0.8993   -0.2741 C   0  0  0  0  0  0  0  0  0  0  0  0
   -5.4711   -0.4026   -0.0701 C   0  0  0  0  0  0  0  0  0  0  0  0
   -0.8268    0.0337   -1.0865 C   0  0  0  0  0  0  0  0  0  0  0  0
    0.6762   -0.1585   -1.3340 C   0  0  0  0  0  0  0  0  0  0  0  0
   -1.1200   -0.0910    0.4454 C   0  0  0  0  0  0  0  0  0  0  0  0
    2.9940    0.2628   -1.0632 C   0  0  0  0  0  0  0  0  0  0  0  0
    4.2307   -0.9654    0.5586 C   0  0  0  0  0  0  0  0  0  0  0  0
   -2.6646    0.0544    0.7739 C   0  0  0  0  0  0  0  0  0  0  0  0
    1.6231    0.7609   -0.5304 C   0  0  0  0  0  0  0  0  0  0  0  0
   -6.6622   -0.4843   -0.3628 O   0  0  0  0  0  0  0  0  0  0  0  0
    4.6858    0.0522    1.0595 O   0  0  0  0  0  0  0  0  0  0  0  0
    3.3668   -1.0073   -0.4957 O   0  0  0  0  0  0  0  0  0  0  0  0
    5.6592   -3.4356    2.5137 H   0  0  0  0  0  0  0  0  0  0  0  0
    6.4238   -1.9328    1.9628 H   0  0  0  0  0  0  0  0  0  0  0  0
    5.0357   -1.8668    3.0583 H   0  0  0  0  0  0  0  0  0  0  0  0
   -2.4858    1.6945    2.2331 H   0  0  0  0  0  0  0  0  0  0  0  0
   -2.4788    0.0730    2.9582 H   0  0  0  0  0  0  0  0  0  0  0  0
   -3.9793    0.7988    2.3833 H   0  0  0  0  0  0  0  0  0  0  0  0
    0.6035    2.7286   -0.5112 H   0  0  0  0  0  0  0  0  0  0  0  0
    2.3424    2.8098   -0.3232 H   0  0  0  0  0  0  0  0  0  0  0  0
    1.6499    2.4923   -1.9095 H   0  0  0  0  0  0  0  0  0  0  0  0
    4.9790   -2.9202    0.1797 H   0  0  0  0  0  0  0  0  0  0  0  0
    3.5801   -2.8553    1.2861 H   0  0  0  0  0  0  0  0  0  0  0  0
   -2.1082    2.6098   -0.1898 H   0  0  0  0  0  0  0  0  0  0  0  0
   -3.1443    2.5907   -1.6004 H   0  0  0  0  0  0  0  0  0  0  0  0
   -1.8886    0.9369   -2.7198 H   0  0  0  0  0  0  0  0  0  0  0  0
   -0.7157    2.0191   -2.0537 H   0  0  0  0  0  0  0  0  0  0  0  0
    0.9553   -0.9976   -3.3258 H   0  0  0  0  0  0  0  0  0  0  0  0
    0.8318    0.7627   -3.3134 H   0  0  0  0  0  0  0  0  0  0  0  0
    3.2499   -0.8718   -2.9358 H   0  0  0  0  0  0  0  0  0  0  0  0
    3.1016    0.8787   -3.1609 H   0  0  0  0  0  0  0  0  0  0  0  0
   -5.1932   -2.3732    0.6744 H   0  0  0  0  0  0  0  0  0  0  0  0
   -5.1219   -1.1033    1.9067 H   0  0  0  0  0  0  0  0  0  0  0  0
   -0.4000    1.8462    1.1779 H   0  0  0  0  0  0  0  0  0  0  0  0
   -0.2877    0.5512    2.3547 H   0  0  0  0  0  0  0  0  0  0  0  0
   -2.8687   -1.9871    1.5481 H   0  0  0  0  0  0  0  0  0  0  0  0
   -3.0405   -1.8659   -0.1967 H   0  0  0  0  0  0  0  0  0  0  0  0
    1.9525    1.1987    1.5768 H   0  0  0  0  0  0  0  0  0  0  0  0
    1.5686   -0.4854    1.2567 H   0  0  0  0  0  0  0  0  0  0  0  0
   -5.1530    1.2896   -1.4074 H   0  0  0  0  0  0  0  0  0  0  0  0
   -1.3179   -0.8315   -1.5582 H   0  0  0  0  0  0  0  0  0  0  0  0
    0.8704   -1.1923   -0.9989 H   0  0  0  0  0  0  0  0  0  0  0  0
   -0.8415   -1.1206    0.7209 H   0  0  0  0  0  0  0  0  0  0  0  0
    3.8020    0.9929   -0.9364 H   0  0  0  0  0  0  0  0  0  0  0  0
  1  4  1  0
  2 21  1  0
  3 22  1  0
  4 20  1  0
  5  6  1  0
  5 14  1  0
  6 16  1  0
  7  8  1  0
  7 17  1  0
  8 19  1  0
  9 11  1  0
  9 15  1  0
 10 12  1  0
 10 18  1  0
 11 21  1  0
 12 22  1  0
 13 14  2  0
 13 15  1  0
 14 21  1  0
 15 23  2  0
 16 17  1  0
 16 18  1  0
 17 22  1  0
 18 21  1  0
 19 22  1  0
 19 25  1  0
 20 24  2  0
 20 25  1  0
  1 26  1  0
  1 27  1  0
  1 28  1  0
  2 29  1  0
  2 30  1  0
  2 31  1  0
  3 32  1  0
  3 33  1  0
  3 34  1  0
  4 35  1  0
  4 36  1  0
  5 37  1  0
  5 38  1  0
  6 39  1  0
  6 40  1  0
  7 41  1  0
  7 42  1  0
  8 43  1  0
  8 44  1  0
  9 45  1  0
  9 46  1  0
 10 47  1  0
 10 48  1  0
 11 49  1  0
 11 50  1  0
 12 51  1  0
 12 52  1  0
 13 53  1  0
 16 54  1  0
 17 55  1  0
 18 56  1  0
 19 57  1  0
M  END
