
     RDKit          3D

 46 49  0  0  0  0  0  0  0  0999 V2000
   -6.3013   -0.0625   -0.3568 C   0  0  0  0  0  0  0  0  0  0  0  0
   -6.2609    0.9349    1.9390 C   0  0  0  0  0  0  0  0  0  0  0  0
    7.0669    1.4330   -1.8159 C   0  0  0  0  0  0  0  0  0  0  0  0
    6.6736    1.5205   -0.4841 C   0  0  0  0  0  0  0  0  0  0  0  0
    2.3166   -2.5362    0.2299 C   0  0  0  0  0  0  0  0  0  0  0  0
    6.2982    0.7004   -2.7197 C   0  0  0  0  0  0  0  0  0  0  0  0
    3.4713   -1.9160   -0.2455 C   0  0  0  0  0  0  0  0  0  0  0  0
    1.1750   -1.7819    0.5069 C   0  0  0  0  0  0  0  0  0  0  0  0
    5.5118    0.8756   -0.0545 C   0  0  0  0  0  0  0  0  0  0  0  0
   -3.4068   -1.1544    0.3912 C   0  0  0  0  0  0  0  0  0  0  0  0
   -2.0130   -1.1490    0.2346 C   0  0  0  0  0  0  0  0  0  0  0  0
    2.3515    0.2224   -0.1586 C   0  0  0  0  0  0  0  0  0  0  0  0
   -3.3941    1.1155    1.2032 C   0  0  0  0  0  0  0  0  0  0  0  0
    4.3671   -0.6839   -3.2691 C   0  0  0  0  0  0  0  0  0  0  0  0
    0.0438    1.7215    0.9556 C   0  0  0  0  0  0  0  0  0  0  0  0
    3.5046   -0.5299   -0.4472 C   0  0  0  0  0  0  0  0  0  0  0  0
    5.1288    0.0489   -2.2957 C   0  0  0  0  0  0  0  0  0  0  0  0
   -4.1181   -0.0471    0.8878 C   0  0  0  0  0  0  0  0  0  0  0  0
    1.1782   -0.3980    0.3046 C   0  0  0  0  0  0  0  0  0  0  0  0
    4.7206    0.1293   -0.9481 C   0  0  0  0  0  0  0  0  0  0  0  0
   -1.9957    1.1437    1.0511 C   0  0  0  0  0  0  0  0  0  0  0  0
   -1.3153    0.0091    0.6087 C   0  0  0  0  0  0  0  0  0  0  0  0
   -5.6376   -0.1270    1.0230 C   0  0  0  0  0  0  0  0  0  0  0  0
    3.7712   -1.2740   -4.0718 N   0  0  0  0  0  0  0  0  0  0  0  0
   -1.1427    2.1902    1.2623 N   0  0  0  0  0  0  0  0  0  0  0  0
    0.0246    0.3879    0.5959 N   0  0  0  0  0  0  0  0  0  0  0  0
   -5.9766   -1.3941    1.6052 O   0  0  0  0  0  0  0  0  0  0  0  0
   -6.0773    0.8796   -0.8690 H   0  0  0  0  0  0  0  0  0  0  0  0
   -7.3899   -0.1605   -0.2712 H   0  0  0  0  0  0  0  0  0  0  0  0
   -5.9720   -0.8869   -1.0002 H   0  0  0  0  0  0  0  0  0  0  0  0
   -5.8057    0.9118    2.9363 H   0  0  0  0  0  0  0  0  0  0  0  0
   -7.3301    0.7403    2.0862 H   0  0  0  0  0  0  0  0  0  0  0  0
   -6.1572    1.9463    1.5323 H   0  0  0  0  0  0  0  0  0  0  0  0
    7.9715    1.9353   -2.1511 H   0  0  0  0  0  0  0  0  0  0  0  0
    7.2716    2.0901    0.2238 H   0  0  0  0  0  0  0  0  0  0  0  0
    2.3097   -3.6113    0.3954 H   0  0  0  0  0  0  0  0  0  0  0  0
    6.6147    0.6410   -3.7601 H   0  0  0  0  0  0  0  0  0  0  0  0
    4.3499   -2.5243   -0.4530 H   0  0  0  0  0  0  0  0  0  0  0  0
    0.3212   -2.3002    0.9320 H   0  0  0  0  0  0  0  0  0  0  0  0
    5.2250    0.9521    0.9936 H   0  0  0  0  0  0  0  0  0  0  0  0
   -3.9521   -2.0540    0.1011 H   0  0  0  0  0  0  0  0  0  0  0  0
   -1.5203   -2.0145   -0.1943 H   0  0  0  0  0  0  0  0  0  0  0  0
    2.3829    1.2936   -0.3483 H   0  0  0  0  0  0  0  0  0  0  0  0
   -3.8768    2.0219    1.5508 H   0  0  0  0  0  0  0  0  0  0  0  0
    0.9572    2.2956    1.0266 H   0  0  0  0  0  0  0  0  0  0  0  0
   -5.3637   -1.5346    2.3480 H   0  0  0  0  0  0  0  0  0  0  0  0
  1 23  1  0
  2 23  1  0
  3  4  2  0
  3  6  1  0
  4  9  1  0
  5  7  2  0
  5  8  1  0
  6 17  2  0
  7 16  1  0
  8 19  2  0
  9 20  2  0
 10 11  2  0
 10 18  1  0
 11 22  1  0
 12 16  2  0
 12 19  1  0
 13 18  2  0
 13 21  1  0
 14 17  1  0
 14 24  3  0
 15 25  2  0
 15 26  1  0
 16 20  1  0
 17 20  1  0
 18 23  1  0
 19 26  1  0
 21 22  2  0
 21 25  1  0
 22 26  1  0
 23 27  1  0
  1 28  1  0
  1 29  1  0
  1 30  1  0
  2 31  1  0
  2 32  1  0
  2 33  1  0
  3 34  1  0
  4 35  1  0
  5 36  1  0
  6 37  1  0
  7 38  1  0
  8 39  1  0
  9 40  1  0
 10 41  1  0
 11 42  1  0
 12 43  1  0
 13 44  1  0
 15 45  1  0
 27 46  1  0
M  END
