
     RDKit          3D

 54 57  0  0  0  0  0  0  0  0999 V2000
    0.7842   -1.3897    0.3736 C   0  0  0  0  0  0  0  0  0  0  0  0
    7.7424   -2.5465   -0.5848 C   0  0  0  0  0  0  0  0  0  0  0  0
    4.7563   -0.3009    1.4071 C   0  0  0  0  0  0  0  0  0  0  0  0
    3.7050    0.0560   -0.7394 C   0  0  0  0  0  0  0  0  0  0  0  0
   -0.1387    4.6681    0.6100 C   0  0  0  0  0  0  0  0  0  0  0  0
    5.7609   -1.0592    0.7947 C   0  0  0  0  0  0  0  0  0  0  0  0
    4.7100   -0.7034   -1.3453 C   0  0  0  0  0  0  0  0  0  0  0  0
    0.8220    3.6972    0.9107 C   0  0  0  0  0  0  0  0  0  0  0  0
   -2.8414   -0.4440    0.3026 C   0  0  0  0  0  0  0  0  0  0  0  0
   -1.7503   -0.1264   -0.7308 C   0  0  0  0  0  0  0  0  0  0  0  0
   -4.7185   -1.8967    0.8070 C   0  0  0  0  0  0  0  0  0  0  0  0
   -4.8489   -0.4337   -1.1313 C   0  0  0  0  0  0  0  0  0  0  0  0
   -6.1148   -2.3181    0.3273 C   0  0  0  0  0  0  0  0  0  0  0  0
   -6.1815   -0.0599   -0.4602 C   0  0  0  0  0  0  0  0  0  0  0  0
   -1.6222    2.9629   -0.2851 C   0  0  0  0  0  0  0  0  0  0  0  0
    0.5305    0.0818    0.3431 C   0  0  0  0  0  0  0  0  0  0  0  0
    3.7158    0.2474    0.6463 C   0  0  0  0  0  0  0  0  0  0  0  0
   -1.3404    4.2977    0.0193 C   0  0  0  0  0  0  0  0  0  0  0  0
    5.7392   -1.2660   -0.5848 C   0  0  0  0  0  0  0  0  0  0  0  0
    0.5678    2.3391    0.6169 C   0  0  0  0  0  0  0  0  0  0  0  0
   -0.6488    1.9960    0.0262 C   0  0  0  0  0  0  0  0  0  0  0  0
    1.3294    1.1380    0.7751 C   0  0  0  0  0  0  0  0  0  0  0  0
    2.6753    1.0571    1.3406 C   0  0  0  0  0  0  0  0  0  0  0  0
   -2.6297    5.6249   -0.3812 Br  0  0  0  0  0  0  0  0  0  0  0  0
   -3.9472   -1.2321   -0.2690 N   0  0  0  0  0  0  0  0  0  0  0  0
   -0.6454    0.6236   -0.1392 N   0  0  0  0  0  0  0  0  0  0  0  0
    2.9855    1.6634    2.3634 O   0  0  0  0  0  0  0  0  0  0  0  0
    6.6526   -1.9842   -1.3053 O   0  0  0  0  0  0  0  0  0  0  0  0
   -6.9371   -1.2006   -0.0353 O   0  0  0  0  0  0  0  0  0  0  0  0
    1.0625   -1.7487   -0.6221 H   0  0  0  0  0  0  0  0  0  0  0  0
    1.5899   -1.6424    1.0690 H   0  0  0  0  0  0  0  0  0  0  0  0
   -0.1016   -1.9389    0.7073 H   0  0  0  0  0  0  0  0  0  0  0  0
    7.3930   -3.2791    0.1502 H   0  0  0  0  0  0  0  0  0  0  0  0
    8.3466   -1.7663   -0.1100 H   0  0  0  0  0  0  0  0  0  0  0  0
    8.3809   -3.0723   -1.3011 H   0  0  0  0  0  0  0  0  0  0  0  0
    4.7882   -0.1397    2.4834 H   0  0  0  0  0  0  0  0  0  0  0  0
    2.9318    0.4975   -1.3631 H   0  0  0  0  0  0  0  0  0  0  0  0
    0.0681    5.7086    0.8459 H   0  0  0  0  0  0  0  0  0  0  0  0
    6.5442   -1.4688    1.4242 H   0  0  0  0  0  0  0  0  0  0  0  0
    4.6962   -0.8521   -2.4228 H   0  0  0  0  0  0  0  0  0  0  0  0
    1.7604    3.9877    1.3780 H   0  0  0  0  0  0  0  0  0  0  0  0
   -3.2223    0.4754    0.7660 H   0  0  0  0  0  0  0  0  0  0  0  0
   -2.3705   -1.0201    1.1106 H   0  0  0  0  0  0  0  0  0  0  0  0
   -2.1317    0.4690   -1.5670 H   0  0  0  0  0  0  0  0  0  0  0  0
   -1.3433   -1.0456   -1.1663 H   0  0  0  0  0  0  0  0  0  0  0  0
   -4.8380   -1.2200    1.6636 H   0  0  0  0  0  0  0  0  0  0  0  0
   -4.1662   -2.7792    1.1484 H   0  0  0  0  0  0  0  0  0  0  0  0
   -4.3649    0.4739   -1.5071 H   0  0  0  0  0  0  0  0  0  0  0  0
   -5.0709   -1.0522   -2.0100 H   0  0  0  0  0  0  0  0  0  0  0  0
   -6.6366   -2.8645    1.1197 H   0  0  0  0  0  0  0  0  0  0  0  0
   -6.0454   -2.9874   -0.5382 H   0  0  0  0  0  0  0  0  0  0  0  0
   -6.8074    0.5043   -1.1592 H   0  0  0  0  0  0  0  0  0  0  0  0
   -6.0094    0.5824    0.4115 H   0  0  0  0  0  0  0  0  0  0  0  0
   -2.5655    2.6865   -0.7434 H   0  0  0  0  0  0  0  0  0  0  0  0
  1 16  1  0
  2 28  1  0
  3  6  2  0
  3 17  1  0
  4  7  1  0
  4 17  2  0
  5  8  2  0
  5 18  1  0
  6 19  1  0
  7 19  2  0
  8 20  1  0
  9 10  1  0
  9 25  1  0
 10 26  1  0
 11 13  1  0
 11 25  1  0
 12 14  1  0
 12 25  1  0
 13 29  1  0
 14 29  1  0
 15 18  2  0
 15 21  1  0
 16 22  2  0
 16 26  1  0
 17 23  1  0
 18 24  1  0
 19 28  1  0
 20 21  2  0
 20 22  1  0
 21 26  1  0
 22 23  1  0
 23 27  2  0
  1 30  1  0
  1 31  1  0
  1 32  1  0
  2 33  1  0
  2 34  1  0
  2 35  1  0
  3 36  1  0
  4 37  1  0
  5 38  1  0
  6 39  1  0
  7 40  1  0
  8 41  1  0
  9 42  1  0
  9 43  1  0
 10 44  1  0
 10 45  1  0
 11 46  1  0
 11 47  1  0
 12 48  1  0
 12 49  1  0
 13 50  1  0
 13 51  1  0
 14 52  1  0
 14 53  1  0
 15 54  1  0
M  END
