
     RDKit          3D

 55 58  0  0  0  0  0  0  0  0999 V2000
   -1.6419    3.4166   -0.3123 C   0  0  0  0  0  0  0  0  0  0  0  0
   -2.5188    3.9793    0.6111 C   0  0  0  0  0  0  0  0  0  0  0  0
    0.0143   -0.6391    0.2993 C   0  0  0  0  0  0  0  0  0  0  0  0
   -1.6387    2.0360   -0.5219 C   0  0  0  0  0  0  0  0  0  0  0  0
   -1.4176   -1.0447    0.0452 C   0  0  0  0  0  0  0  0  0  0  0  0
   -3.4109    3.1652    1.3096 C   0  0  0  0  0  0  0  0  0  0  0  0
   -6.3501   -2.2356   -0.1272 C   0  0  0  0  0  0  0  0  0  0  0  0
   -6.1161   -1.1944    0.7740 C   0  0  0  0  0  0  0  0  0  0  0  0
    0.8827   -0.8301   -0.9581 C   0  0  0  0  0  0  0  0  0  0  0  0
    3.0554   -1.1446    0.1476 C   0  0  0  0  0  0  0  0  0  0  0  0
    2.4648    1.0313   -0.6939 C   0  0  0  0  0  0  0  0  0  0  0  0
    4.5510   -0.7448    0.1370 C   0  0  0  0  0  0  0  0  0  0  0  0
    3.9594    1.4294   -0.7076 C   0  0  0  0  0  0  0  0  0  0  0  0
    6.1752    1.0902    0.2099 C   0  0  0  0  0  0  0  0  0  0  0  0
    6.9990    0.5979    1.4099 C   0  0  0  0  0  0  0  0  0  0  0  0
   -4.0982   -2.0055   -0.9748 C   0  0  0  0  0  0  0  0  0  0  0  0
   -5.3493   -2.6429   -1.0203 C   0  0  0  0  0  0  0  0  0  0  0  0
   -2.5289   -0.2736    0.0023 C   0  0  0  0  0  0  0  0  0  0  0  0
   -2.4979    1.1990    0.2061 C   0  0  0  0  0  0  0  0  0  0  0  0
   -3.8449   -0.9707   -0.0584 C   0  0  0  0  0  0  0  0  0  0  0  0
   -3.4199    1.7801    1.0985 C   0  0  0  0  0  0  0  0  0  0  0  0
   -4.8742   -0.5492    0.8050 C   0  0  0  0  0  0  0  0  0  0  0  0
   -5.6028   -3.7725   -1.9883 C   0  0  0  0  0  0  0  0  0  0  0  0
   -4.7902   -3.7364   -3.0817 F   0  0  0  0  0  0  0  0  0  0  0  0
   -6.8760   -3.7825   -2.4720 F   0  0  0  0  0  0  0  0  0  0  0  0
   -5.4082   -4.9934   -1.4184 F   0  0  0  0  0  0  0  0  0  0  0  0
    2.2903   -0.4185   -0.8778 N   0  0  0  0  0  0  0  0  0  0  0  0
    4.7481    0.7121    0.3213 N   0  0  0  0  0  0  0  0  0  0  0  0
    6.3507    0.9675    2.6259 O   0  0  0  0  0  0  0  0  0  0  0  0
   -4.6453    0.7988    1.9662 S   0  0  0  0  0  0  0  0  0  0  0  0
   -0.9633    4.0528   -0.8751 H   0  0  0  0  0  0  0  0  0  0  0  0
   -2.5219    5.0538    0.7757 H   0  0  0  0  0  0  0  0  0  0  0  0
    0.3908   -1.2750    1.1098 H   0  0  0  0  0  0  0  0  0  0  0  0
    0.0786    0.3848    0.6735 H   0  0  0  0  0  0  0  0  0  0  0  0
   -0.9637    1.6215   -1.2657 H   0  0  0  0  0  0  0  0  0  0  0  0
   -1.5272   -2.1268   -0.0347 H   0  0  0  0  0  0  0  0  0  0  0  0
   -4.1078    3.6202    2.0092 H   0  0  0  0  0  0  0  0  0  0  0  0
   -7.3244   -2.7233   -0.1356 H   0  0  0  0  0  0  0  0  0  0  0  0
   -6.9125   -0.8861    1.4480 H   0  0  0  0  0  0  0  0  0  0  0  0
    0.8576   -1.8901   -1.2452 H   0  0  0  0  0  0  0  0  0  0  0  0
    0.4218   -0.3020   -1.8030 H   0  0  0  0  0  0  0  0  0  0  0  0
    2.9879   -2.2235   -0.0360 H   0  0  0  0  0  0  0  0  0  0  0  0
    2.6515   -0.9542    1.1499 H   0  0  0  0  0  0  0  0  0  0  0  0
    2.0223    1.3684    0.2513 H   0  0  0  0  0  0  0  0  0  0  0  0
    1.9601    1.5700   -1.5047 H   0  0  0  0  0  0  0  0  0  0  0  0
    5.0036   -1.0768   -0.8072 H   0  0  0  0  0  0  0  0  0  0  0  0
    5.0422   -1.2944    0.9475 H   0  0  0  0  0  0  0  0  0  0  0  0
    4.3715    1.2383   -1.7078 H   0  0  0  0  0  0  0  0  0  0  0  0
    4.0238    2.5094   -0.5280 H   0  0  0  0  0  0  0  0  0  0  0  0
    6.6204    0.7381   -0.7287 H   0  0  0  0  0  0  0  0  0  0  0  0
    6.2366    2.1864    0.2131 H   0  0  0  0  0  0  0  0  0  0  0  0
    7.9954    1.0500    1.4012 H   0  0  0  0  0  0  0  0  0  0  0  0
    7.1198   -0.4893    1.3997 H   0  0  0  0  0  0  0  0  0  0  0  0
   -3.3183   -2.3147   -1.6705 H   0  0  0  0  0  0  0  0  0  0  0  0
    5.3945    0.9382    2.4154 H   0  0  0  0  0  0  0  0  0  0  0  0
  1  2  2  0
  1  4  1  0
  2  6  1  0
  3  5  1  0
  3  9  1  0
  4 19  2  0
  5 18  2  3
  6 21  2  0
  7  8  1  0
  7 17  2  0
  8 22  2  0
  9 27  1  0
 10 12  1  0
 10 27  1  0
 11 13  1  0
 11 27  1  0
 12 28  1  0
 13 28  1  0
 14 15  1  0
 14 28  1  0
 15 29  1  0
 16 17  1  0
 16 20  2  0
 17 23  1  0
 18 19  1  0
 18 20  1  0
 19 21  1  0
 20 22  1  0
 21 30  1  0
 22 30  1  0
 23 24  1  0
 23 25  1  0
 23 26  1  0
  1 31  1  0
  2 32  1  0
  3 33  1  0
  3 34  1  0
  4 35  1  0
  5 36  1  0
  6 37  1  0
  7 38  1  0
  8 39  1  0
  9 40  1  0
  9 41  1  0
 10 42  1  0
 10 43  1  0
 11 44  1  0
 11 45  1  0
 12 46  1  0
 12 47  1  0
 13 48  1  0
 13 49  1  0
 14 50  1  0
 14 51  1  0
 15 52  1  0
 15 53  1  0
 16 54  1  0
 29 55  1  0
M  END
