
     RDKit          3D

 54 56  0  0  0  0  0  0  0  0999 V2000
   -5.9897   -2.4463   -0.5154 C   0  0  0  0  0  0  0  0  0  0  0  0
   -4.9972   -2.4996   -1.6396 C   0  0  0  0  0  0  0  0  0  0  0  0
    6.9963    1.3876    1.1429 C   0  0  0  0  0  0  0  0  0  0  0  0
   -2.1913    4.0314    0.7188 C   0  0  0  0  0  0  0  0  0  0  0  0
    6.3491    1.5274   -0.0820 C   0  0  0  0  0  0  0  0  0  0  0  0
    6.5799    0.4123    2.0427 C   0  0  0  0  0  0  0  0  0  0  0  0
   -2.6393    3.7827   -0.5817 C   0  0  0  0  0  0  0  0  0  0  0  0
   -1.9804    2.9686    1.6042 C   0  0  0  0  0  0  0  0  0  0  0  0
   -4.1105   -1.5495   -1.9795 C   0  0  0  0  0  0  0  0  0  0  0  0
    5.2837    0.6903   -0.4070 C   0  0  0  0  0  0  0  0  0  0  0  0
    5.5171   -0.4268    1.7198 C   0  0  0  0  0  0  0  0  0  0  0  0
   -2.8680    2.4687   -0.9975 C   0  0  0  0  0  0  0  0  0  0  0  0
   -2.2000    1.6529    1.1821 C   0  0  0  0  0  0  0  0  0  0  0  0
    3.6736   -1.1748    0.1558 C   0  0  0  0  0  0  0  0  0  0  0  0
   -0.4208   -0.3019   -1.2844 C   0  0  0  0  0  0  0  0  0  0  0  0
   -1.3021   -1.4842    0.8083 C   0  0  0  0  0  0  0  0  0  0  0  0
    2.3688   -0.5694    0.7040 C   0  0  0  0  0  0  0  0  0  0  0  0
    0.7900   -1.2039   -1.0567 C   0  0  0  0  0  0  0  0  0  0  0  0
    0.0762   -1.0283    1.2988 C   0  0  0  0  0  0  0  0  0  0  0  0
    4.8589   -0.2960    0.4908 C   0  0  0  0  0  0  0  0  0  0  0  0
   -2.6357    1.3856   -0.1261 C   0  0  0  0  0  0  0  0  0  0  0  0
   -1.6512   -0.8846   -0.5655 C   0  0  0  0  0  0  0  0  0  0  0  0
   -4.0252   -0.2425   -1.2791 C   0  0  0  0  0  0  0  0  0  0  0  0
    1.1643   -1.3577    0.3590 N   0  0  0  0  0  0  0  0  0  0  0  0
   -2.8243    0.0403   -0.5975 N   0  0  0  0  0  0  0  0  0  0  0  0
   -5.0125    0.4990   -1.3333 O   0  0  0  0  0  0  0  0  0  0  0  0
   -7.0066   -2.3873   -0.9248 H   0  0  0  0  0  0  0  0  0  0  0  0
   -5.9221   -3.3692    0.0887 H   0  0  0  0  0  0  0  0  0  0  0  0
   -5.8332   -1.6010    0.1625 H   0  0  0  0  0  0  0  0  0  0  0  0
   -5.0175   -3.4112   -2.2311 H   0  0  0  0  0  0  0  0  0  0  0  0
    7.8238    2.0382    1.3945 H   0  0  0  0  0  0  0  0  0  0  0  0
   -2.0193    5.0534    1.0449 H   0  0  0  0  0  0  0  0  0  0  0  0
    6.6718    2.2896   -0.7838 H   0  0  0  0  0  0  0  0  0  0  0  0
    7.0817    0.3048    2.9991 H   0  0  0  0  0  0  0  0  0  0  0  0
   -2.8112    4.6083   -1.2749 H   0  0  0  0  0  0  0  0  0  0  0  0
   -1.6531    3.1585    2.6292 H   0  0  0  0  0  0  0  0  0  0  0  0
   -3.4349   -1.6850   -2.8154 H   0  0  0  0  0  0  0  0  0  0  0  0
    4.7841    0.8147   -1.3654 H   0  0  0  0  0  0  0  0  0  0  0  0
    5.2014   -1.1813    2.4338 H   0  0  0  0  0  0  0  0  0  0  0  0
   -3.2085    2.2997   -2.0196 H   0  0  0  0  0  0  0  0  0  0  0  0
   -2.0798    0.8617    1.9168 H   0  0  0  0  0  0  0  0  0  0  0  0
    3.6302   -1.3157   -0.9299 H   0  0  0  0  0  0  0  0  0  0  0  0
    3.8306   -2.1712    0.5785 H   0  0  0  0  0  0  0  0  0  0  0  0
   -0.1827    0.7159   -0.9446 H   0  0  0  0  0  0  0  0  0  0  0  0
   -0.6311   -0.2284   -2.3605 H   0  0  0  0  0  0  0  0  0  0  0  0
   -1.2832   -2.5797    0.7226 H   0  0  0  0  0  0  0  0  0  0  0  0
   -2.0727   -1.2716    1.5508 H   0  0  0  0  0  0  0  0  0  0  0  0
    2.2510    0.4680    0.3650 H   0  0  0  0  0  0  0  0  0  0  0  0
    2.4708   -0.5233    1.7972 H   0  0  0  0  0  0  0  0  0  0  0  0
    0.5642   -2.2070   -1.4487 H   0  0  0  0  0  0  0  0  0  0  0  0
    1.6212   -0.8320   -1.6694 H   0  0  0  0  0  0  0  0  0  0  0  0
    0.0554    0.0541    1.4913 H   0  0  0  0  0  0  0  0  0  0  0  0
    0.2820   -1.5184    2.2642 H   0  0  0  0  0  0  0  0  0  0  0  0
   -1.9220   -1.7660   -1.1588 H   0  0  0  0  0  0  0  0  0  0  0  0
  1  2  1  0
  2  9  2  3
  3  5  2  0
  3  6  1  0
  4  7  2  0
  4  8  1  0
  5 10  1  0
  6 11  2  0
  7 12  1  0
  8 13  2  0
  9 23  1  0
 10 20  2  0
 11 20  1  0
 12 21  2  0
 13 21  1  0
 14 17  1  0
 14 20  1  0
 15 18  1  0
 15 22  1  0
 16 19  1  0
 16 22  1  0
 17 24  1  0
 18 24  1  0
 19 24  1  0
 21 25  1  0
 22 25  1  0
 23 25  1  0
 23 26  2  0
  1 27  1  0
  1 28  1  0
  1 29  1  0
  2 30  1  0
  3 31  1  0
  4 32  1  0
  5 33  1  0
  6 34  1  0
  7 35  1  0
  8 36  1  0
  9 37  1  0
 10 38  1  0
 11 39  1  0
 12 40  1  0
 13 41  1  0
 14 42  1  0
 14 43  1  0
 15 44  1  0
 15 45  1  0
 16 46  1  0
 16 47  1  0
 17 48  1  0
 17 49  1  0
 18 50  1  0
 18 51  1  0
 19 52  1  0
 19 53  1  0
 22 54  1  0
M  END
