
     RDKit          3D

 58 61  0  0  0  0  0  0  0  0999 V2000
    7.6776    0.9878    1.8720 C   0  0  0  0  0  0  0  0  0  0  0  0
    6.4962    1.8305    1.4283 C   0  0  0  0  0  0  0  0  0  0  0  0
   -3.1141    3.9198    1.2736 C   0  0  0  0  0  0  0  0  0  0  0  0
   -3.9814    3.0829    2.2096 C   0  0  0  0  0  0  0  0  0  0  0  0
    1.2064    1.7917   -1.4312 C   0  0  0  0  0  0  0  0  0  0  0  0
    2.0924   -0.4495   -1.4572 C   0  0  0  0  0  0  0  0  0  0  0  0
   -3.1327   -4.4865    0.2155 C   0  0  0  0  0  0  0  0  0  0  0  0
    2.3365    2.2218   -0.7314 C   0  0  0  0  0  0  0  0  0  0  0  0
    3.2234   -0.0149   -0.7568 C   0  0  0  0  0  0  0  0  0  0  0  0
   -2.8849   -3.1137    0.3314 C   0  0  0  0  0  0  0  0  0  0  0  0
   -2.6243    2.9517    0.2029 C   0  0  0  0  0  0  0  0  0  0  0  0
   -3.7964    1.6497    1.7376 C   0  0  0  0  0  0  0  0  0  0  0  0
   -3.1766    0.6269   -0.4270 C   0  0  0  0  0  0  0  0  0  0  0  0
   -1.9057   -0.1089    0.0204 C   0  0  0  0  0  0  0  0  0  0  0  0
    5.4615    1.0042    0.6697 C   0  0  0  0  0  0  0  0  0  0  0  0
   -0.1572   -0.0191   -2.5521 C   0  0  0  0  0  0  0  0  0  0  0  0
   -1.7480   -4.6302   -1.7994 C   0  0  0  0  0  0  0  0  0  0  0  0
    1.0630    0.4445   -1.7864 C   0  0  0  0  0  0  0  0  0  0  0  0
   -2.5710   -5.2300   -0.8339 C   0  0  0  0  0  0  0  0  0  0  0  0
    3.3475    1.3228   -0.3854 C   0  0  0  0  0  0  0  0  0  0  0  0
   -1.4996   -3.2559   -1.6855 C   0  0  0  0  0  0  0  0  0  0  0  0
   -2.0592   -2.5308   -0.6389 C   0  0  0  0  0  0  0  0  0  0  0  0
   -0.8204   -1.2359   -1.9742 C   0  0  0  0  0  0  0  0  0  0  0  0
   -0.7466   -2.4477   -2.4929 N   0  0  0  0  0  0  0  0  0  0  0  0
   -3.5547    1.8323    0.3109 N   0  0  0  0  0  0  0  0  0  0  0  0
   -1.6064   -1.2436   -0.8399 N   0  0  0  0  0  0  0  0  0  0  0  0
   -2.8504   -6.6683   -0.9277 N   0  0  0  0  0  4  0  0  0  0  0  0
   -2.3034   -7.3067   -1.8379 O   0  0  0  0  0  1  0  0  0  0  0  0
   -3.6179   -7.1617   -0.0880 O   0  0  0  0  0  0  0  0  0  0  0  0
    4.3920    1.8755    0.3023 O   0  0  0  0  0  0  0  0  0  0  0  0
    7.3556    0.1732    2.5285 H   0  0  0  0  0  0  0  0  0  0  0  0
    8.3976    1.6029    2.4212 H   0  0  0  0  0  0  0  0  0  0  0  0
    8.1920    0.5502    1.0104 H   0  0  0  0  0  0  0  0  0  0  0  0
    6.8443    2.6548    0.7942 H   0  0  0  0  0  0  0  0  0  0  0  0
    6.0248    2.2992    2.3002 H   0  0  0  0  0  0  0  0  0  0  0  0
   -3.7078    4.7307    0.8357 H   0  0  0  0  0  0  0  0  0  0  0  0
   -2.2716    4.3711    1.8089 H   0  0  0  0  0  0  0  0  0  0  0  0
   -3.6947    3.2106    3.2583 H   0  0  0  0  0  0  0  0  0  0  0  0
   -5.0305    3.3871    2.1083 H   0  0  0  0  0  0  0  0  0  0  0  0
    0.4452    2.5203   -1.6981 H   0  0  0  0  0  0  0  0  0  0  0  0
    2.0198   -1.4978   -1.7469 H   0  0  0  0  0  0  0  0  0  0  0  0
   -3.7712   -4.9633    0.9587 H   0  0  0  0  0  0  0  0  0  0  0  0
    2.4348    3.2695   -0.4580 H   0  0  0  0  0  0  0  0  0  0  0  0
    3.9877   -0.7489   -0.5237 H   0  0  0  0  0  0  0  0  0  0  0  0
   -3.3214   -2.5367    1.1400 H   0  0  0  0  0  0  0  0  0  0  0  0
   -1.5928    2.6600    0.4283 H   0  0  0  0  0  0  0  0  0  0  0  0
   -2.6454    3.4092   -0.7912 H   0  0  0  0  0  0  0  0  0  0  0  0
   -2.9378    1.2019    2.2512 H   0  0  0  0  0  0  0  0  0  0  0  0
   -4.6844    1.0429    1.9377 H   0  0  0  0  0  0  0  0  0  0  0  0
   -4.0218   -0.0726   -0.3861 H   0  0  0  0  0  0  0  0  0  0  0  0
   -3.0886    0.8932   -1.4881 H   0  0  0  0  0  0  0  0  0  0  0  0
   -2.0070   -0.4928    1.0408 H   0  0  0  0  0  0  0  0  0  0  0  0
   -1.0346    0.5479    0.0207 H   0  0  0  0  0  0  0  0  0  0  0  0
    5.0887    0.2024    1.3189 H   0  0  0  0  0  0  0  0  0  0  0  0
    5.9229    0.5755   -0.2280 H   0  0  0  0  0  0  0  0  0  0  0  0
    0.1518   -0.2333   -3.5832 H   0  0  0  0  0  0  0  0  0  0  0  0
   -0.8945    0.7896   -2.6191 H   0  0  0  0  0  0  0  0  0  0  0  0
   -1.3064   -5.1853   -2.6203 H   0  0  0  0  0  0  0  0  0  0  0  0
  1  2  1  0
  2 15  1  0
  3  4  1  0
  3 11  1  0
  4 12  1  0
  5  8  2  0
  5 18  1  0
  6  9  1  0
  6 18  2  0
  7 10  2  0
  7 19  1  0
  8 20  1  0
  9 20  2  0
 10 22  1  0
 11 25  1  0
 12 25  1  0
 13 14  1  0
 13 25  1  0
 14 26  1  0
 15 30  1  0
 16 18  1  0
 16 23  1  0
 17 19  2  0
 17 21  1  0
 19 27  1  0
 20 30  1  0
 21 22  2  0
 21 24  1  0
 22 26  1  0
 23 24  2  0
 23 26  1  0
 27 28  1  0
 27 29  2  0
  1 31  1  0
  1 32  1  0
  1 33  1  0
  2 34  1  0
  2 35  1  0
  3 36  1  0
  3 37  1  0
  4 38  1  0
  4 39  1  0
  5 40  1  0
  6 41  1  0
  7 42  1  0
  8 43  1  0
  9 44  1  0
 10 45  1  0
 11 46  1  0
 11 47  1  0
 12 48  1  0
 12 49  1  0
 13 50  1  0
 13 51  1  0
 14 52  1  0
 14 53  1  0
 15 54  1  0
 15 55  1  0
 16 56  1  0
 16 57  1  0
 17 58  1  0
M  CHG  2  27   1  28  -1
M  END
