
     RDKit          3D

 56 58  0  0  0  0  0  0  0  0999 V2000
   -5.1132    1.8138    0.1277 C   0  0  0  0  0  0  0  0  0  0  0  0
   -4.8397   -0.3339    1.4522 C   0  0  0  0  0  0  0  0  0  0  0  0
    5.1666   -2.3361   -1.9332 C   0  0  0  0  0  0  0  0  0  0  0  0
    5.9812   -2.1171   -0.8243 C   0  0  0  0  0  0  0  0  0  0  0  0
    4.1329   -1.4480   -2.2228 C   0  0  0  0  0  0  0  0  0  0  0  0
    5.7652   -1.0076   -0.0055 C   0  0  0  0  0  0  0  0  0  0  0  0
    3.9160   -0.3385   -1.4046 C   0  0  0  0  0  0  0  0  0  0  0  0
   -2.6941   -2.5289   -1.9074 C   0  0  0  0  0  0  0  0  0  0  0  0
   -3.3639   -0.4442   -2.9330 C   0  0  0  0  0  0  0  0  0  0  0  0
   -2.3135   -1.8369   -0.7554 C   0  0  0  0  0  0  0  0  0  0  0  0
   -2.9851    0.2470   -1.7782 C   0  0  0  0  0  0  0  0  0  0  0  0
    4.4913    1.0925    0.5995 C   0  0  0  0  0  0  0  0  0  0  0  0
   -0.1962    0.0782    2.1909 C   0  0  0  0  0  0  0  0  0  0  0  0
    0.1606    1.3973    0.0498 C   0  0  0  0  0  0  0  0  0  0  0  0
    3.4858    0.8278    1.7370 C   0  0  0  0  0  0  0  0  0  0  0  0
    1.3213   -0.0706    2.3548 C   0  0  0  0  0  0  0  0  0  0  0  0
    1.4271    1.7955    0.8121 C   0  0  0  0  0  0  0  0  0  0  0  0
   -4.3365    1.0876    1.2173 C   0  0  0  0  0  0  0  0  0  0  0  0
    4.7322   -0.1048   -0.2903 C   0  0  0  0  0  0  0  0  0  0  0  0
   -3.2224   -1.8294   -2.9899 C   0  0  0  0  0  0  0  0  0  0  0  0
   -2.4783   -0.4477   -0.6762 C   0  0  0  0  0  0  0  0  0  0  0  0
   -0.5736    0.2140    0.7103 C   0  0  0  0  0  0  0  0  0  0  0  0
   -2.8069    1.2393    1.1079 C   0  0  0  0  0  0  0  0  0  0  0  0
   -3.6954   -2.6797   -4.4083 Cl  0  0  0  0  0  0  0  0  0  0  0  0
    2.1013    0.5900    1.2943 N   0  0  0  0  0  0  0  0  0  0  0  0
   -2.0467    0.2448    0.4894 N   0  0  0  0  0  0  0  0  0  0  0  0
   -2.2854    2.2240    1.6456 O   0  0  0  0  0  0  0  0  0  0  0  0
   -4.6086    2.7362   -0.1780 H   0  0  0  0  0  0  0  0  0  0  0  0
   -5.2631    1.1936   -0.7587 H   0  0  0  0  0  0  0  0  0  0  0  0
   -6.1109    2.0842    0.4931 H   0  0  0  0  0  0  0  0  0  0  0  0
   -4.1891   -0.8750    2.1475 H   0  0  0  0  0  0  0  0  0  0  0  0
   -4.9042   -0.9097    0.5241 H   0  0  0  0  0  0  0  0  0  0  0  0
   -5.8468   -0.3116    1.8826 H   0  0  0  0  0  0  0  0  0  0  0  0
    5.3360   -3.1995   -2.5708 H   0  0  0  0  0  0  0  0  0  0  0  0
    6.7856   -2.8110   -0.5968 H   0  0  0  0  0  0  0  0  0  0  0  0
    3.4942   -1.6178   -3.0852 H   0  0  0  0  0  0  0  0  0  0  0  0
    6.4092   -0.8512    0.8558 H   0  0  0  0  0  0  0  0  0  0  0  0
    3.0990    0.3413   -1.6344 H   0  0  0  0  0  0  0  0  0  0  0  0
   -2.5752   -3.6081   -1.9518 H   0  0  0  0  0  0  0  0  0  0  0  0
   -3.7559    0.1053   -3.7850 H   0  0  0  0  0  0  0  0  0  0  0  0
   -1.9070   -2.3916    0.0872 H   0  0  0  0  0  0  0  0  0  0  0  0
   -3.0533    1.3322   -1.7674 H   0  0  0  0  0  0  0  0  0  0  0  0
    5.4480    1.3902    1.0498 H   0  0  0  0  0  0  0  0  0  0  0  0
    4.1903    1.9504   -0.0126 H   0  0  0  0  0  0  0  0  0  0  0  0
   -0.7034   -0.7855    2.6377 H   0  0  0  0  0  0  0  0  0  0  0  0
   -0.5247    0.9566    2.7578 H   0  0  0  0  0  0  0  0  0  0  0  0
    0.4238    1.1075   -0.9759 H   0  0  0  0  0  0  0  0  0  0  0  0
   -0.4787    2.2799   -0.0522 H   0  0  0  0  0  0  0  0  0  0  0  0
    3.5107    1.6707    2.4395 H   0  0  0  0  0  0  0  0  0  0  0  0
    3.8430   -0.0511    2.2915 H   0  0  0  0  0  0  0  0  0  0  0  0
    1.5760   -1.1376    2.3466 H   0  0  0  0  0  0  0  0  0  0  0  0
    1.5910    0.3135    3.3479 H   0  0  0  0  0  0  0  0  0  0  0  0
    1.1826    2.4679    1.6447 H   0  0  0  0  0  0  0  0  0  0  0  0
    2.0563    2.3684    0.1233 H   0  0  0  0  0  0  0  0  0  0  0  0
   -4.5665    1.6197    2.1542 H   0  0  0  0  0  0  0  0  0  0  0  0
   -0.1889   -0.6970    0.2305 H   0  0  0  0  0  0  0  0  0  0  0  0
  1 18  1  0
  2 18  1  0
  3  4  2  0
  3  5  1  0
  4  6  1  0
  5  7  2  0
  6 19  2  0
  7 19  1  0
  8 10  2  0
  8 20  1  0
  9 11  1  0
  9 20  2  0
 10 21  1  0
 11 21  2  0
 12 15  1  0
 12 19  1  0
 13 16  1  0
 13 22  1  0
 14 17  1  0
 14 22  1  0
 15 25  1  0
 16 25  1  0
 17 25  1  0
 18 23  1  0
 20 24  1  0
 21 26  1  0
 22 26  1  0
 23 26  1  0
 23 27  2  0
  1 28  1  0
  1 29  1  0
  1 30  1  0
  2 31  1  0
  2 32  1  0
  2 33  1  0
  3 34  1  0
  4 35  1  0
  5 36  1  0
  6 37  1  0
  7 38  1  0
  8 39  1  0
  9 40  1  0
 10 41  1  0
 11 42  1  0
 12 43  1  0
 12 44  1  0
 13 45  1  0
 13 46  1  0
 14 47  1  0
 14 48  1  0
 15 49  1  0
 15 50  1  0
 16 51  1  0
 16 52  1  0
 17 53  1  0
 17 54  1  0
 18 55  1  0
 22 56  1  0
M  END
