
     RDKit          3D

 56 58  0  0  0  0  0  0  0  0999 V2000
   -6.4143    2.3587    0.0828 C   0  0  0  0  0  0  0  0  0  0  0  0
   -5.3158    1.9678    1.0510 C   0  0  0  0  0  0  0  0  0  0  0  0
    6.3934   -2.8451   -0.6040 C   0  0  0  0  0  0  0  0  0  0  0  0
   -3.5657   -3.3275   -1.7116 C   0  0  0  0  0  0  0  0  0  0  0  0
    6.2716   -2.3356    0.6874 C   0  0  0  0  0  0  0  0  0  0  0  0
    5.8197   -2.1663   -1.6764 C   0  0  0  0  0  0  0  0  0  0  0  0
   -3.9817   -2.9775   -0.4313 C   0  0  0  0  0  0  0  0  0  0  0  0
   -2.6720   -2.5081   -2.3940 C   0  0  0  0  0  0  0  0  0  0  0  0
    5.5771   -1.1445    0.9084 C   0  0  0  0  0  0  0  0  0  0  0  0
    5.1227   -0.9767   -1.4572 C   0  0  0  0  0  0  0  0  0  0  0  0
   -3.5092   -1.8047    0.1625 C   0  0  0  0  0  0  0  0  0  0  0  0
   -2.2022   -1.3315   -1.8029 C   0  0  0  0  0  0  0  0  0  0  0  0
    2.7241    0.6469   -0.0506 C   0  0  0  0  0  0  0  0  0  0  0  0
   -1.6300    1.4580   -0.8022 C   0  0  0  0  0  0  0  0  0  0  0  0
   -0.9065   -0.1196    1.0674 C   0  0  0  0  0  0  0  0  0  0  0  0
    1.9658    1.9384    0.2928 C   0  0  0  0  0  0  0  0  0  0  0  0
   -0.1100    1.5119   -0.9487 C   0  0  0  0  0  0  0  0  0  0  0  0
   -0.0032    1.0442    1.4738 C   0  0  0  0  0  0  0  0  0  0  0  0
    4.9979   -0.4483   -0.1621 C   0  0  0  0  0  0  0  0  0  0  0  0
   -2.6255   -0.9433   -0.5196 C   0  0  0  0  0  0  0  0  0  0  0  0
    4.2395    0.8391    0.0856 C   0  0  0  0  0  0  0  0  0  0  0  0
   -3.1874    0.9691    1.0589 C   0  0  0  0  0  0  0  0  0  0  0  0
   -2.0924    0.3338    0.1725 C   0  0  0  0  0  0  0  0  0  0  0  0
    0.5032    1.8189    0.3398 N   0  0  0  0  0  0  0  0  0  0  0  0
    4.6853    1.8439   -0.8250 O   0  0  0  0  0  0  0  0  0  0  0  0
   -3.1489    1.0491    2.2809 O   0  0  0  0  0  0  0  0  0  0  0  0
   -4.2357    1.4067    0.2983 O   0  0  0  0  0  0  0  0  0  0  0  0
   -6.0430    3.0799   -0.6524 H   0  0  0  0  0  0  0  0  0  0  0  0
   -6.7636    1.4843   -0.4766 H   0  0  0  0  0  0  0  0  0  0  0  0
   -7.2626    2.7989    0.6141 H   0  0  0  0  0  0  0  0  0  0  0  0
   -5.6965    1.2256    1.7604 H   0  0  0  0  0  0  0  0  0  0  0  0
   -4.9669    2.8528    1.5930 H   0  0  0  0  0  0  0  0  0  0  0  0
    6.9349   -3.7724   -0.7746 H   0  0  0  0  0  0  0  0  0  0  0  0
   -3.9284   -4.2412   -2.1726 H   0  0  0  0  0  0  0  0  0  0  0  0
    6.7160   -2.8684    1.5244 H   0  0  0  0  0  0  0  0  0  0  0  0
    5.9117   -2.5642   -2.6839 H   0  0  0  0  0  0  0  0  0  0  0  0
   -4.6720   -3.6188    0.1116 H   0  0  0  0  0  0  0  0  0  0  0  0
   -2.3333   -2.7866   -3.3892 H   0  0  0  0  0  0  0  0  0  0  0  0
    5.4910   -0.7660    1.9247 H   0  0  0  0  0  0  0  0  0  0  0  0
    4.6755   -0.4586   -2.3038 H   0  0  0  0  0  0  0  0  0  0  0  0
   -3.8414   -1.5778    1.1752 H   0  0  0  0  0  0  0  0  0  0  0  0
   -1.4911   -0.7360   -2.3682 H   0  0  0  0  0  0  0  0  0  0  0  0
    2.4016   -0.1720    0.6041 H   0  0  0  0  0  0  0  0  0  0  0  0
    2.4843    0.3547   -1.0807 H   0  0  0  0  0  0  0  0  0  0  0  0
   -2.1004    1.3623   -1.7887 H   0  0  0  0  0  0  0  0  0  0  0  0
   -1.9540    2.4442   -0.4350 H   0  0  0  0  0  0  0  0  0  0  0  0
   -0.2898   -0.8614    0.5404 H   0  0  0  0  0  0  0  0  0  0  0  0
   -1.2667   -0.6281    1.9712 H   0  0  0  0  0  0  0  0  0  0  0  0
    2.3133    2.3221    1.2611 H   0  0  0  0  0  0  0  0  0  0  0  0
    2.2260    2.7170   -0.4353 H   0  0  0  0  0  0  0  0  0  0  0  0
    0.2569    0.5664   -1.3628 H   0  0  0  0  0  0  0  0  0  0  0  0
    0.1411    2.2990   -1.6696 H   0  0  0  0  0  0  0  0  0  0  0  0
    0.8091    0.6518    2.0965 H   0  0  0  0  0  0  0  0  0  0  0  0
   -0.5598    1.7303    2.1218 H   0  0  0  0  0  0  0  0  0  0  0  0
    4.4722    1.2075    1.0922 H   0  0  0  0  0  0  0  0  0  0  0  0
    5.6361    1.6965   -0.9706 H   0  0  0  0  0  0  0  0  0  0  0  0
  1  2  1  0
  2 27  1  0
  3  5  2  0
  3  6  1  0
  4  7  2  0
  4  8  1  0
  5  9  1  0
  6 10  2  0
  7 11  1  0
  8 12  2  0
  9 19  2  0
 10 19  1  0
 11 20  2  0
 12 20  1  0
 13 16  1  0
 13 21  1  0
 14 17  1  0
 14 23  1  0
 15 18  1  0
 15 23  1  0
 16 24  1  0
 17 24  1  0
 18 24  1  0
 19 21  1  0
 20 23  1  0
 21 25  1  0
 22 23  1  0
 22 26  2  0
 22 27  1  0
  1 28  1  0
  1 29  1  0
  1 30  1  0
  2 31  1  0
  2 32  1  0
  3 33  1  0
  4 34  1  0
  5 35  1  0
  6 36  1  0
  7 37  1  0
  8 38  1  0
  9 39  1  0
 10 40  1  0
 11 41  1  0
 12 42  1  0
 13 43  1  0
 13 44  1  0
 14 45  1  0
 14 46  1  0
 15 47  1  0
 15 48  1  0
 16 49  1  0
 16 50  1  0
 17 51  1  0
 17 52  1  0
 18 53  1  0
 18 54  1  0
 21 55  1  0
 25 56  1  0
M  END
