
     RDKit          3D

 56 58  0  0  0  0  0  0  0  0999 V2000
    5.7646    2.3544   -1.7481 C   0  0  0  0  0  0  0  0  0  0  0  0
   -3.4741   -1.7722   -1.5157 C   0  0  0  0  0  0  0  0  0  0  0  0
    4.9975    1.1012   -2.1514 C   0  0  0  0  0  0  0  0  0  0  0  0
    5.2769   -0.3120    2.7776 C   0  0  0  0  0  0  0  0  0  0  0  0
   -7.4688   -0.6210    1.5562 C   0  0  0  0  0  0  0  0  0  0  0  0
    5.6261   -1.0984    1.6820 C   0  0  0  0  0  0  0  0  0  0  0  0
    4.4717    0.8105    2.5987 C   0  0  0  0  0  0  0  0  0  0  0  0
   -7.4198   -0.1203    0.2560 C   0  0  0  0  0  0  0  0  0  0  0  0
   -6.2921   -0.7735    2.2875 C   0  0  0  0  0  0  0  0  0  0  0  0
    5.1715   -0.7626    0.4055 C   0  0  0  0  0  0  0  0  0  0  0  0
    4.0159    1.1490    1.3233 C   0  0  0  0  0  0  0  0  0  0  0  0
   -6.1932    0.2249   -0.3160 C   0  0  0  0  0  0  0  0  0  0  0  0
   -5.0649   -0.4286    1.7175 C   0  0  0  0  0  0  0  0  0  0  0  0
   -1.0939    0.9424   -0.8084 C   0  0  0  0  0  0  0  0  0  0  0  0
   -0.3985   -1.4187   -0.7088 C   0  0  0  0  0  0  0  0  0  0  0  0
   -1.6032    1.3726    0.5716 C   0  0  0  0  0  0  0  0  0  0  0  0
    0.8748   -1.3978   -1.5747 C   0  0  0  0  0  0  0  0  0  0  0  0
   -2.7692   -0.8173   -0.5412 C   0  0  0  0  0  0  0  0  0  0  0  0
    4.3623    0.3675    0.2104 C   0  0  0  0  0  0  0  0  0  0  0  0
   -4.9988    0.0716    0.4064 C   0  0  0  0  0  0  0  0  0  0  0  0
    3.8587    0.7478   -1.1729 C   0  0  0  0  0  0  0  0  0  0  0  0
   -3.6671    0.4325   -0.2297 C   0  0  0  0  0  0  0  0  0  0  0  0
    2.9745   -0.3507   -1.7580 C   0  0  0  0  0  0  0  0  0  0  0  0
   -1.4411   -0.4554   -1.1388 N   0  0  0  0  0  0  0  0  0  0  0  0
    3.2835   -1.0866   -2.6869 O   0  0  0  0  0  0  0  0  0  0  0  0
   -3.0291    1.3670    0.6641 O   0  0  0  0  0  0  0  0  0  0  0  0
    1.7823   -0.3962   -1.0943 O   0  0  0  0  0  0  0  0  0  0  0  0
    6.5152    2.5956   -2.5079 H   0  0  0  0  0  0  0  0  0  0  0  0
    5.0918    3.2124   -1.6537 H   0  0  0  0  0  0  0  0  0  0  0  0
    6.2872    2.2174   -0.7966 H   0  0  0  0  0  0  0  0  0  0  0  0
   -3.7388   -1.2614   -2.4482 H   0  0  0  0  0  0  0  0  0  0  0  0
   -2.8450   -2.6306   -1.7728 H   0  0  0  0  0  0  0  0  0  0  0  0
   -4.3921   -2.1783   -1.0788 H   0  0  0  0  0  0  0  0  0  0  0  0
    4.5754    1.2669   -3.1509 H   0  0  0  0  0  0  0  0  0  0  0  0
    5.7016    0.2665   -2.2527 H   0  0  0  0  0  0  0  0  0  0  0  0
    5.6334   -0.5734    3.7709 H   0  0  0  0  0  0  0  0  0  0  0  0
   -8.4245   -0.8855    2.0018 H   0  0  0  0  0  0  0  0  0  0  0  0
    6.2545   -1.9744    1.8207 H   0  0  0  0  0  0  0  0  0  0  0  0
    4.1998    1.4243    3.4537 H   0  0  0  0  0  0  0  0  0  0  0  0
   -8.3380    0.0052   -0.3128 H   0  0  0  0  0  0  0  0  0  0  0  0
   -6.3295   -1.1541    3.3052 H   0  0  0  0  0  0  0  0  0  0  0  0
    5.4551   -1.3931   -0.4357 H   0  0  0  0  0  0  0  0  0  0  0  0
    3.3898    2.0306    1.2062 H   0  0  0  0  0  0  0  0  0  0  0  0
   -6.1764    0.6163   -1.3314 H   0  0  0  0  0  0  0  0  0  0  0  0
   -4.1556   -0.5378    2.3058 H   0  0  0  0  0  0  0  0  0  0  0  0
   -0.0218    1.1358   -0.8845 H   0  0  0  0  0  0  0  0  0  0  0  0
   -1.5602    1.5806   -1.5698 H   0  0  0  0  0  0  0  0  0  0  0  0
   -0.8063   -2.4320   -0.8026 H   0  0  0  0  0  0  0  0  0  0  0  0
   -0.1451   -1.2666    0.3473 H   0  0  0  0  0  0  0  0  0  0  0  0
   -1.2045    0.7246    1.3621 H   0  0  0  0  0  0  0  0  0  0  0  0
   -1.2668    2.3923    0.7922 H   0  0  0  0  0  0  0  0  0  0  0  0
    1.3641   -2.3766   -1.4953 H   0  0  0  0  0  0  0  0  0  0  0  0
    0.6271   -1.2100   -2.6266 H   0  0  0  0  0  0  0  0  0  0  0  0
   -2.5957   -1.3413    0.4095 H   0  0  0  0  0  0  0  0  0  0  0  0
    3.2170    1.6376   -1.1001 H   0  0  0  0  0  0  0  0  0  0  0  0
   -3.8581    0.9791   -1.1635 H   0  0  0  0  0  0  0  0  0  0  0  0
  1  3  1  0
  2 18  1  0
  3 21  1  0
  4  6  2  0
  4  7  1  0
  5  8  2  0
  5  9  1  0
  6 10  1  0
  7 11  2  0
  8 12  1  0
  9 13  2  0
 10 19  2  0
 11 19  1  0
 12 20  2  0
 13 20  1  0
 14 16  1  0
 14 24  1  0
 15 17  1  0
 15 24  1  0
 16 26  1  0
 17 27  1  0
 18 22  1  0
 18 24  1  0
 19 21  1  0
 20 22  1  0
 21 23  1  0
 22 26  1  0
 23 25  2  0
 23 27  1  0
  1 28  1  0
  1 29  1  0
  1 30  1  0
  2 31  1  0
  2 32  1  0
  2 33  1  0
  3 34  1  0
  3 35  1  0
  4 36  1  0
  5 37  1  0
  6 38  1  0
  7 39  1  0
  8 40  1  0
  9 41  1  0
 10 42  1  0
 11 43  1  0
 12 44  1  0
 13 45  1  0
 14 46  1  0
 14 47  1  0
 15 48  1  0
 15 49  1  0
 16 50  1  0
 16 51  1  0
 17 52  1  0
 17 53  1  0
 18 54  1  0
 21 55  1  0
 22 56  1  0
M  END
