
     RDKit          3D

 48 52  0  0  0  0  0  0  0  0999 V2000
   -5.2713    2.8567    0.4101 C   0  0  0  0  0  0  0  0  0  0  0  0
   -5.4287    1.4905    0.1778 C   0  0  0  0  0  0  0  0  0  0  0  0
   -4.0388    3.4678    0.1807 C   0  0  0  0  0  0  0  0  0  0  0  0
    5.7903   -0.1863    3.3805 C   0  0  0  0  0  0  0  0  0  0  0  0
   -1.6928   -2.2714    1.5268 C   0  0  0  0  0  0  0  0  0  0  0  0
    5.6817   -1.4731    2.8567 C   0  0  0  0  0  0  0  0  0  0  0  0
   -1.4168   -3.3657    0.7151 C   0  0  0  0  0  0  0  0  0  0  0  0
   -4.3505    0.7295   -0.2783 C   0  0  0  0  0  0  0  0  0  0  0  0
   -2.9579    2.7116   -0.2761 C   0  0  0  0  0  0  0  0  0  0  0  0
    4.9868    0.8524    2.8955 C   0  0  0  0  0  0  0  0  0  0  0  0
   -1.8582   -1.0106    0.9551 C   0  0  0  0  0  0  0  0  0  0  0  0
    4.7707   -1.7617    1.8358 C   0  0  0  0  0  0  0  0  0  0  0  0
   -1.2906   -3.1931   -0.6646 C   0  0  0  0  0  0  0  0  0  0  0  0
    3.1155    1.3731    1.1577 C   0  0  0  0  0  0  0  0  0  0  0  0
   -3.1068    1.3370   -0.4941 C   0  0  0  0  0  0  0  0  0  0  0  0
    4.0625    0.5851    1.8677 C   0  0  0  0  0  0  0  0  0  0  0  0
   -1.7528   -0.8386   -0.4377 C   0  0  0  0  0  0  0  0  0  0  0  0
    3.9761   -0.7111    1.3631 C   0  0  0  0  0  0  0  0  0  0  0  0
   -1.4360   -1.9319   -1.2602 C   0  0  0  0  0  0  0  0  0  0  0  0
    2.4706    0.5619    0.2409 C   0  0  0  0  0  0  0  0  0  0  0  0
   -1.9398    0.5385   -0.9891 C   0  0  0  0  0  0  0  0  0  0  0  0
   -0.0560    0.3515   -2.4567 C   0  0  0  0  0  0  0  0  0  0  0  0
    1.4357    0.8520   -0.7033 C   0  0  0  0  0  0  0  0  0  0  0  0
   -0.6288   -0.8760   -3.1588 C   0  0  0  0  0  0  0  0  0  0  0  0
    3.0120   -0.6961    0.3842 N   0  0  0  0  0  0  0  0  0  0  0  0
   -1.2662   -1.8803   -2.6538 N   0  0  0  0  0  0  0  0  0  0  0  0
   -1.1556    1.1110   -1.8475 N   0  0  0  0  0  0  0  0  0  0  0  0
    0.9710   -0.0394   -1.4958 N   0  0  0  0  0  0  0  0  0  0  0  0
    1.0092    2.1267   -0.6315 O   0  0  0  0  0  0  0  0  0  0  0  0
   -0.4646   -0.8874   -4.4939 O   0  0  0  0  0  0  0  0  0  0  0  0
   -6.1130    3.4483    0.7621 H   0  0  0  0  0  0  0  0  0  0  0  0
   -6.3943    1.0193    0.3443 H   0  0  0  0  0  0  0  0  0  0  0  0
   -3.9201    4.5346    0.3533 H   0  0  0  0  0  0  0  0  0  0  0  0
    6.5061    0.0157    4.1734 H   0  0  0  0  0  0  0  0  0  0  0  0
   -1.7752   -2.3969    2.6038 H   0  0  0  0  0  0  0  0  0  0  0  0
    6.3156   -2.2662    3.2465 H   0  0  0  0  0  0  0  0  0  0  0  0
   -1.2892   -4.3529    1.1523 H   0  0  0  0  0  0  0  0  0  0  0  0
   -4.4986   -0.3292   -0.4759 H   0  0  0  0  0  0  0  0  0  0  0  0
   -2.0040    3.2000   -0.4547 H   0  0  0  0  0  0  0  0  0  0  0  0
    5.0772    1.8527    3.3079 H   0  0  0  0  0  0  0  0  0  0  0  0
   -2.0563   -0.1626    1.6071 H   0  0  0  0  0  0  0  0  0  0  0  0
    4.6887   -2.7640    1.4287 H   0  0  0  0  0  0  0  0  0  0  0  0
   -1.0630   -4.0522   -1.2920 H   0  0  0  0  0  0  0  0  0  0  0  0
    2.9205    2.4282    1.3007 H   0  0  0  0  0  0  0  0  0  0  0  0
    0.4055    0.9808   -3.2281 H   0  0  0  0  0  0  0  0  0  0  0  0
    2.7197   -1.4937   -0.1643 H   0  0  0  0  0  0  0  0  0  0  0  0
    0.1943    2.2164   -1.1602 H   0  0  0  0  0  0  0  0  0  0  0  0
   -0.8839   -1.7012   -4.8191 H   0  0  0  0  0  0  0  0  0  0  0  0
  1  2  2  0
  1  3  1  0
  2  8  1  0
  3  9  2  0
  4  6  2  0
  4 10  1  0
  5  7  2  0
  5 11  1  0
  6 12  1  0
  7 13  1  0
  8 15  2  0
  9 15  1  0
 10 16  2  0
 11 17  2  0
 12 18  2  0
 13 19  2  0
 14 16  1  0
 14 20  2  0
 15 21  1  0
 16 18  1  0
 17 19  1  0
 17 21  1  0
 18 25  1  0
 19 26  1  0
 20 23  1  0
 20 25  1  0
 21 27  2  0
 22 24  1  0
 22 27  1  0
 22 28  1  0
 23 28  2  3
 23 29  1  0
 24 26  2  0
 24 30  1  0
  1 31  1  0
  2 32  1  0
  3 33  1  0
  4 34  1  0
  5 35  1  0
  6 36  1  0
  7 37  1  0
  8 38  1  0
  9 39  1  0
 10 40  1  0
 11 41  1  0
 12 42  1  0
 13 43  1  0
 14 44  1  0
 22 45  1  0
 25 46  1  0
 29 47  1  0
 30 48  1  0
M  END
