
     RDKit          3D

 52 55  0  0  0  0  0  0  0  0999 V2000
    7.0599    1.6330    1.0686 C   0  0  0  0  0  0  0  0  0  0  0  0
   -6.1216    2.1607   -0.0437 C   0  0  0  0  0  0  0  0  0  0  0  0
   -6.2137    1.9487   -1.4177 C   0  0  0  0  0  0  0  0  0  0  0  0
   -5.0347    1.6521    0.6678 C   0  0  0  0  0  0  0  0  0  0  0  0
   -5.2129    1.2385   -2.0839 C   0  0  0  0  0  0  0  0  0  0  0  0
    5.9030   -0.2350   -0.1616 C   0  0  0  0  0  0  0  0  0  0  0  0
    4.9033    1.9680   -0.1857 C   0  0  0  0  0  0  0  0  0  0  0  0
   -2.1994   -3.8206    0.5005 C   0  0  0  0  0  0  0  0  0  0  0  0
    4.8621   -0.7202   -0.9549 C   0  0  0  0  0  0  0  0  0  0  0  0
    3.8607    1.4914   -0.9816 C   0  0  0  0  0  0  0  0  0  0  0  0
   -1.1054   -2.9491    0.5403 C   0  0  0  0  0  0  0  0  0  0  0  0
    1.0595   -1.0149   -0.0929 C   0  0  0  0  0  0  0  0  0  0  0  0
    1.0392   -0.1994   -1.3773 C   0  0  0  0  0  0  0  0  0  0  0  0
   -3.6899   -1.9517    0.7608 C   0  0  0  0  0  0  0  0  0  0  0  0
   -1.2062    0.7641    2.4208 C   0  0  0  0  0  0  0  0  0  0  0  0
    5.9232    1.1070    0.2419 C   0  0  0  0  0  0  0  0  0  0  0  0
   -3.4865   -3.3182    0.6163 C   0  0  0  0  0  0  0  0  0  0  0  0
    3.8406    0.1453   -1.3515 C   0  0  0  0  0  0  0  0  0  0  0  0
   -4.0372    0.9172    0.0079 C   0  0  0  0  0  0  0  0  0  0  0  0
   -2.5933   -1.0673    0.7814 C   0  0  0  0  0  0  0  0  0  0  0  0
   -4.1189    0.7261   -1.3778 C   0  0  0  0  0  0  0  0  0  0  0  0
   -1.2712   -1.5585    0.6888 C   0  0  0  0  0  0  0  0  0  0  0  0
   -0.0413    0.4644    1.4936 C   0  0  0  0  0  0  0  0  0  0  0  0
   -2.9180    0.3899    0.8456 C   0  0  0  0  0  0  0  0  0  0  0  0
   -4.8321   -4.3869    0.5845 Cl  0  0  0  0  0  0  0  0  0  0  0  0
   -2.8956   -0.0811   -2.2910 Cl  0  0  0  0  0  0  0  0  0  0  0  0
   -2.3242    1.2395    1.6143 N   0  0  0  0  0  0  0  0  0  0  0  0
   -0.1095   -0.7212    0.7513 N   0  0  0  0  0  0  0  0  0  0  0  0
    0.9320    1.2208    1.4264 O   0  0  0  0  0  0  0  0  0  0  0  0
    2.4307    0.3898   -3.5163 O   0  0  0  0  0  0  0  0  0  0  0  0
    2.6720   -1.8980   -2.4898 O   0  0  0  0  0  0  0  0  0  0  0  0
    2.5010   -0.4628   -2.3449 S   0  0  0  0  0  6  0  0  0  0  0  0
    7.8611    1.9938    0.4164 H   0  0  0  0  0  0  0  0  0  0  0  0
    6.7277    2.4556    1.7106 H   0  0  0  0  0  0  0  0  0  0  0  0
    7.4605    0.8520    1.7235 H   0  0  0  0  0  0  0  0  0  0  0  0
   -6.8918    2.7285    0.4735 H   0  0  0  0  0  0  0  0  0  0  0  0
   -7.0578    2.3496   -1.9745 H   0  0  0  0  0  0  0  0  0  0  0  0
   -4.9633    1.8309    1.7391 H   0  0  0  0  0  0  0  0  0  0  0  0
   -5.2865    1.0994   -3.1603 H   0  0  0  0  0  0  0  0  0  0  0  0
    6.7018   -0.9099    0.1394 H   0  0  0  0  0  0  0  0  0  0  0  0
    4.9157    3.0181    0.1002 H   0  0  0  0  0  0  0  0  0  0  0  0
   -2.0318   -4.8902    0.3957 H   0  0  0  0  0  0  0  0  0  0  0  0
    4.8638   -1.7640   -1.2604 H   0  0  0  0  0  0  0  0  0  0  0  0
    3.0812    2.1765   -1.3066 H   0  0  0  0  0  0  0  0  0  0  0  0
   -0.1198   -3.4061    0.5063 H   0  0  0  0  0  0  0  0  0  0  0  0
    1.1349   -2.0773   -0.3304 H   0  0  0  0  0  0  0  0  0  0  0  0
    1.9577   -0.7851    0.4926 H   0  0  0  0  0  0  0  0  0  0  0  0
    0.9423    0.8747   -1.1957 H   0  0  0  0  0  0  0  0  0  0  0  0
    0.1938   -0.5014   -2.0041 H   0  0  0  0  0  0  0  0  0  0  0  0
   -4.7073   -1.5790    0.8551 H   0  0  0  0  0  0  0  0  0  0  0  0
   -1.4581   -0.1000    3.0455 H   0  0  0  0  0  0  0  0  0  0  0  0
   -0.8999    1.5620    3.1063 H   0  0  0  0  0  0  0  0  0  0  0  0
  1 16  1  0
  2  3  2  0
  2  4  1  0
  3  5  1  0
  4 19  2  0
  5 21  2  0
  6  9  2  0
  6 16  1  0
  7 10  1  0
  7 16  2  0
  8 11  2  0
  8 17  1  0
  9 18  1  0
 10 18  2  0
 11 22  1  0
 12 13  1  0
 12 28  1  0
 13 32  1  0
 14 17  2  0
 14 20  1  0
 15 23  1  0
 15 27  1  0
 17 25  1  0
 18 32  1  0
 19 21  1  0
 19 24  1  0
 20 22  2  0
 20 24  1  0
 21 26  1  0
 22 28  1  0
 23 28  1  0
 23 29  2  0
 24 27  2  0
 30 32  2  0
 31 32  2  0
  1 33  1  0
  1 34  1  0
  1 35  1  0
  2 36  1  0
  3 37  1  0
  4 38  1  0
  5 39  1  0
  6 40  1  0
  7 41  1  0
  8 42  1  0
  9 43  1  0
 10 44  1  0
 11 45  1  0
 12 46  1  0
 12 47  1  0
 13 48  1  0
 13 49  1  0
 14 50  1  0
 15 51  1  0
 15 52  1  0
M  END
