
     RDKit          3D

 49 52  0  0  0  0  0  0  0  0999 V2000
    5.3468    2.7470   -0.2672 C   0  0  0  0  0  0  0  0  0  0  0  0
    4.6242    1.6987    0.5646 C   0  0  0  0  0  0  0  0  0  0  0  0
    3.7374    0.7642   -0.2624 C   0  0  0  0  0  0  0  0  0  0  0  0
   -4.6832   -0.1047   -1.7208 C   0  0  0  0  0  0  0  0  0  0  0  0
   -5.4386    1.0348   -1.4975 C   0  0  0  0  0  0  0  0  0  0  0  0
    1.4043   -4.4829   -0.1701 C   0  0  0  0  0  0  0  0  0  0  0  0
    2.3518   -3.9027   -1.0050 C   0  0  0  0  0  0  0  0  0  0  0  0
    2.5389    1.4740   -0.8995 C   0  0  0  0  0  0  0  0  0  0  0  0
   -3.7825   -0.5380   -0.7488 C   0  0  0  0  0  0  0  0  0  0  0  0
   -5.2974    1.7352   -0.2993 C   0  0  0  0  0  0  0  0  0  0  0  0
    0.3663   -3.7142    0.3647 C   0  0  0  0  0  0  0  0  0  0  0  0
    2.2884   -2.5442   -1.3271 C   0  0  0  0  0  0  0  0  0  0  0  0
   -2.5712    0.4300    2.6907 C   0  0  0  0  0  0  0  0  0  0  0  0
   -3.3438    1.5595    2.9225 C   0  0  0  0  0  0  0  0  0  0  0  0
    1.6507    0.5337   -1.7187 C   0  0  0  0  0  0  0  0  0  0  0  0
   -0.2000   -0.1476   -0.1968 C   0  0  0  0  0  0  0  0  0  0  0  0
   -3.6087    0.1602    0.4714 C   0  0  0  0  0  0  0  0  0  0  0  0
   -4.3934    1.3206    0.7095 C   0  0  0  0  0  0  0  0  0  0  0  0
    0.2752   -2.3383    0.0581 C   0  0  0  0  0  0  0  0  0  0  0  0
   -2.6914   -0.2498    1.4733 C   0  0  0  0  0  0  0  0  0  0  0  0
   -0.6437   -1.3004    0.4286 C   0  0  0  0  0  0  0  0  0  0  0  0
   -4.2384    2.0051    1.9449 C   0  0  0  0  0  0  0  0  0  0  0  0
    1.2415   -1.7782   -0.7858 C   0  0  0  0  0  0  0  0  0  0  0  0
   -1.8142   -1.4279    1.2960 C   0  0  0  0  0  0  0  0  0  0  0  0
   -5.1477    3.4325    2.3268 Cl  0  0  0  0  0  0  0  0  0  0  0  0
    0.9308   -0.4420   -0.9160 N   0  0  0  0  0  0  0  0  0  0  0  0
   -2.0993   -2.4512    1.9118 O   0  0  0  0  0  0  0  0  0  0  0  0
    4.6468    3.4595   -0.7130 H   0  0  0  0  0  0  0  0  0  0  0  0
    6.0385    3.3146    0.3636 H   0  0  0  0  0  0  0  0  0  0  0  0
    5.9261    2.2809   -1.0704 H   0  0  0  0  0  0  0  0  0  0  0  0
    5.3748    1.0920    1.0853 H   0  0  0  0  0  0  0  0  0  0  0  0
    4.0259    2.1943    1.3379 H   0  0  0  0  0  0  0  0  0  0  0  0
    4.3391    0.2800   -1.0410 H   0  0  0  0  0  0  0  0  0  0  0  0
    3.3800   -0.0296    0.4036 H   0  0  0  0  0  0  0  0  0  0  0  0
   -4.7941   -0.6628   -2.6472 H   0  0  0  0  0  0  0  0  0  0  0  0
   -6.1453    1.3786   -2.2487 H   0  0  0  0  0  0  0  0  0  0  0  0
    1.4673   -5.5406    0.0723 H   0  0  0  0  0  0  0  0  0  0  0  0
    3.1546   -4.5129   -1.4120 H   0  0  0  0  0  0  0  0  0  0  0  0
    1.9465    1.9651   -0.1179 H   0  0  0  0  0  0  0  0  0  0  0  0
    2.8960    2.2618   -1.5720 H   0  0  0  0  0  0  0  0  0  0  0  0
   -3.2170   -1.4451   -0.9589 H   0  0  0  0  0  0  0  0  0  0  0  0
   -5.9169    2.6195   -0.1599 H   0  0  0  0  0  0  0  0  0  0  0  0
   -0.3691   -4.1781    1.0179 H   0  0  0  0  0  0  0  0  0  0  0  0
    3.0393   -2.1055   -1.9759 H   0  0  0  0  0  0  0  0  0  0  0  0
   -1.8770    0.0789    3.4514 H   0  0  0  0  0  0  0  0  0  0  0  0
   -3.2478    2.0907    3.8667 H   0  0  0  0  0  0  0  0  0  0  0  0
    0.8906    1.1184   -2.2514 H   0  0  0  0  0  0  0  0  0  0  0  0
    2.2330    0.0060   -2.4806 H   0  0  0  0  0  0  0  0  0  0  0  0
   -0.5939    0.8611   -0.1899 H   0  0  0  0  0  0  0  0  0  0  0  0
  1  2  1  0
  2  3  1  0
  3  8  1  0
  4  5  2  0
  4  9  1  0
  5 10  1  0
  6  7  2  0
  6 11  1  0
  7 12  1  0
  8 15  1  0
  9 17  2  0
 10 18  2  0
 11 19  2  0
 12 23  2  0
 13 14  1  0
 13 20  2  0
 14 22  2  0
 15 26  1  0
 16 21  2  0
 16 26  1  0
 17 18  1  0
 17 20  1  0
 18 22  1  0
 19 21  1  0
 19 23  1  0
 20 24  1  0
 21 24  1  0
 22 25  1  0
 23 26  1  0
 24 27  2  0
  1 28  1  0
  1 29  1  0
  1 30  1  0
  2 31  1  0
  2 32  1  0
  3 33  1  0
  3 34  1  0
  4 35  1  0
  5 36  1  0
  6 37  1  0
  7 38  1  0
  8 39  1  0
  8 40  1  0
  9 41  1  0
 10 42  1  0
 11 43  1  0
 12 44  1  0
 13 45  1  0
 14 46  1  0
 15 47  1  0
 15 48  1  0
 16 49  1  0
M  END
