
     RDKit          3D

 51 54  0  0  0  0  0  0  0  0999 V2000
   -6.7330    0.3085   -0.3438 C   0  0  0  0  0  0  0  0  0  0  0  0
   -6.0020    1.2841   -1.2525 C   0  0  0  0  0  0  0  0  0  0  0  0
   -4.9491    2.1248   -0.5264 C   0  0  0  0  0  0  0  0  0  0  0  0
    6.5998   -0.4122   -2.0741 C   0  0  0  0  0  0  0  0  0  0  0  0
    5.2664   -0.6638   -2.3739 C   0  0  0  0  0  0  0  0  0  0  0  0
   -1.3949   -3.6827    1.9006 C   0  0  0  0  0  0  0  0  0  0  0  0
   -2.6765   -3.4162    1.4352 C   0  0  0  0  0  0  0  0  0  0  0  0
   -3.8232    1.3367    0.1483 C   0  0  0  0  0  0  0  0  0  0  0  0
    5.2786    2.0786    1.8953 C   0  0  0  0  0  0  0  0  0  0  0  0
    6.9292    0.3293   -0.9393 C   0  0  0  0  0  0  0  0  0  0  0  0
    6.2669    1.5768    1.0507 C   0  0  0  0  0  0  0  0  0  0  0  0
    4.2615   -0.1774   -1.5361 C   0  0  0  0  0  0  0  0  0  0  0  0
   -0.3512   -2.7829    1.6596 C   0  0  0  0  0  0  0  0  0  0  0  0
    3.9389    1.8254    1.6184 C   0  0  0  0  0  0  0  0  0  0  0  0
   -2.9489   -2.2486    0.7187 C   0  0  0  0  0  0  0  0  0  0  0  0
   -3.0047    0.4966   -0.8308 C   0  0  0  0  0  0  0  0  0  0  0  0
   -0.6059    0.3803   -0.1612 C   0  0  0  0  0  0  0  0  0  0  0  0
    5.9295    0.8261   -0.0864 C   0  0  0  0  0  0  0  0  0  0  0  0
    4.5672    0.5689   -0.3777 C   0  0  0  0  0  0  0  0  0  0  0  0
   -0.5917   -1.5912    0.9381 C   0  0  0  0  0  0  0  0  0  0  0  0
    0.2288   -0.4844    0.5281 C   0  0  0  0  0  0  0  0  0  0  0  0
    3.5719    1.0638    0.5026 C   0  0  0  0  0  0  0  0  0  0  0  0
   -1.8940   -1.3509    0.4803 C   0  0  0  0  0  0  0  0  0  0  0  0
    1.6450   -0.2478    0.7486 C   0  0  0  0  0  0  0  0  0  0  0  0
    2.2040    0.8251    0.2876 N   0  0  0  0  0  0  0  0  0  0  0  0
   -1.8688   -0.1431   -0.1823 N   0  0  0  0  0  0  0  0  0  0  0  0
    2.2975   -1.2059    1.4425 O   0  0  0  0  0  0  0  0  0  0  0  0
   -7.1785    0.8262    0.5115 H   0  0  0  0  0  0  0  0  0  0  0  0
   -6.0620   -0.4689    0.0325 H   0  0  0  0  0  0  0  0  0  0  0  0
   -7.5376   -0.1879   -0.8958 H   0  0  0  0  0  0  0  0  0  0  0  0
   -6.7387    1.9648   -1.6963 H   0  0  0  0  0  0  0  0  0  0  0  0
   -5.5469    0.7378   -2.0858 H   0  0  0  0  0  0  0  0  0  0  0  0
   -5.4479    2.7369    0.2355 H   0  0  0  0  0  0  0  0  0  0  0  0
   -4.5094    2.8273   -1.2454 H   0  0  0  0  0  0  0  0  0  0  0  0
    7.3847   -0.7873   -2.7256 H   0  0  0  0  0  0  0  0  0  0  0  0
    5.0033   -1.2343   -3.2609 H   0  0  0  0  0  0  0  0  0  0  0  0
   -1.1978   -4.5955    2.4567 H   0  0  0  0  0  0  0  0  0  0  0  0
   -3.4783   -4.1241    1.6307 H   0  0  0  0  0  0  0  0  0  0  0  0
   -4.2315    0.7015    0.9431 H   0  0  0  0  0  0  0  0  0  0  0  0
   -3.1603    2.0530    0.6514 H   0  0  0  0  0  0  0  0  0  0  0  0
    5.5525    2.6701    2.7650 H   0  0  0  0  0  0  0  0  0  0  0  0
    7.9790    0.5203   -0.7267 H   0  0  0  0  0  0  0  0  0  0  0  0
    7.3096    1.7860    1.2820 H   0  0  0  0  0  0  0  0  0  0  0  0
    3.2237   -0.3772   -1.7979 H   0  0  0  0  0  0  0  0  0  0  0  0
    0.6441   -3.0080    2.0319 H   0  0  0  0  0  0  0  0  0  0  0  0
    3.1670    2.2228    2.2732 H   0  0  0  0  0  0  0  0  0  0  0  0
   -3.9541   -2.0502    0.3618 H   0  0  0  0  0  0  0  0  0  0  0  0
   -2.6103    1.1210   -1.6412 H   0  0  0  0  0  0  0  0  0  0  0  0
   -3.6056   -0.2937   -1.2920 H   0  0  0  0  0  0  0  0  0  0  0  0
   -0.3835    1.3297   -0.6326 H   0  0  0  0  0  0  0  0  0  0  0  0
    3.2371   -0.9885    1.5197 H   0  0  0  0  0  0  0  0  0  0  0  0
  1  2  1  0
  2  3  1  0
  3  8  1  0
  4  5  2  0
  4 10  1  0
  5 12  1  0
  6  7  2  0
  6 13  1  0
  7 15  1  0
  8 16  1  0
  9 11  2  0
  9 14  1  0
 10 18  2  0
 11 18  1  0
 12 19  2  0
 13 20  2  0
 14 22  2  0
 15 23  2  0
 16 26  1  0
 17 21  2  0
 17 26  1  0
 18 19  1  0
 19 22  1  0
 20 21  1  0
 20 23  1  0
 21 24  1  0
 22 25  1  0
 23 26  1  0
 24 25  2  3
 24 27  1  0
  1 28  1  0
  1 29  1  0
  1 30  1  0
  2 31  1  0
  2 32  1  0
  3 33  1  0
  3 34  1  0
  4 35  1  0
  5 36  1  0
  6 37  1  0
  7 38  1  0
  8 39  1  0
  8 40  1  0
  9 41  1  0
 10 42  1  0
 11 43  1  0
 12 44  1  0
 13 45  1  0
 14 46  1  0
 15 47  1  0
 16 48  1  0
 16 49  1  0
 17 50  1  0
 27 51  1  0
M  END
