
     RDKit          3D

 59 61  0  0  0  0  0  0  0  0999 V2000
   -2.5156   -3.2361    1.6712 C   0  0  0  0  0  0  0  0  0  0  0  0
   -1.5931   -3.4572   -0.6652 C   0  0  0  0  0  0  0  0  0  0  0  0
    2.2951   -1.7121   -1.7474 C   0  0  0  0  0  0  0  0  0  0  0  0
    2.4612   -1.4411    1.3160 C   0  0  0  0  0  0  0  0  0  0  0  0
   -0.9700    2.0039   -0.6378 C   0  0  0  0  0  0  0  0  0  0  0  0
    6.7373    0.7293    0.3079 C   0  0  0  0  0  0  0  0  0  0  0  0
   -6.1415    3.5256    0.2513 C   0  0  0  0  0  0  0  0  0  0  0  0
    5.7618    1.3685    1.0679 C   0  0  0  0  0  0  0  0  0  0  0  0
    6.3846    0.0915   -0.8793 C   0  0  0  0  0  0  0  0  0  0  0  0
   -6.3378    2.3004   -0.3783 C   0  0  0  0  0  0  0  0  0  0  0  0
   -4.8936    3.8339    0.7840 C   0  0  0  0  0  0  0  0  0  0  0  0
    4.4316    1.3645    0.6423 C   0  0  0  0  0  0  0  0  0  0  0  0
    5.0547    0.0866   -1.3040 C   0  0  0  0  0  0  0  0  0  0  0  0
   -5.2856    1.3826   -0.4752 C   0  0  0  0  0  0  0  0  0  0  0  0
   -3.8421    2.9173    0.6801 C   0  0  0  0  0  0  0  0  0  0  0  0
    2.6191    0.7317   -1.0031 C   0  0  0  0  0  0  0  0  0  0  0  0
    0.4215   -0.1702    1.1702 C   0  0  0  0  0  0  0  0  0  0  0  0
   -1.5457   -2.6582    0.6374 C   0  0  0  0  0  0  0  0  0  0  0  0
    1.7506   -0.5568   -0.8919 C   0  0  0  0  0  0  0  0  0  0  0  0
    4.0575    0.7086   -0.5407 C   0  0  0  0  0  0  0  0  0  0  0  0
   -4.0178    1.6786    0.0429 C   0  0  0  0  0  0  0  0  0  0  0  0
   -0.9884   -0.1296    0.6171 C   0  0  0  0  0  0  0  0  0  0  0  0
   -1.7831   -1.1985    0.4027 C   0  0  0  0  0  0  0  0  0  0  0  0
   -3.0785   -0.6440   -0.0857 C   0  0  0  0  0  0  0  0  0  0  0  0
    1.3566   -1.0478    0.4454 N   0  0  0  0  0  0  0  0  0  0  0  0
   -1.6214    1.0912    0.3182 N   0  0  0  0  0  0  0  0  0  0  0  0
   -2.9495    0.7490   -0.0660 N   0  0  0  0  0  0  0  0  0  0  0  0
   -4.0448   -1.3355   -0.3681 O   0  0  0  0  0  0  0  0  0  0  0  0
   -3.5463   -3.2565    1.3029 H   0  0  0  0  0  0  0  0  0  0  0  0
   -2.2360   -4.2654    1.9224 H   0  0  0  0  0  0  0  0  0  0  0  0
   -2.4975   -2.6517    2.5981 H   0  0  0  0  0  0  0  0  0  0  0  0
   -0.8868   -3.0556   -1.3999 H   0  0  0  0  0  0  0  0  0  0  0  0
   -1.3245   -4.5026   -0.4831 H   0  0  0  0  0  0  0  0  0  0  0  0
   -2.5908   -3.4471   -1.1167 H   0  0  0  0  0  0  0  0  0  0  0  0
    1.5782   -2.5423   -1.7778 H   0  0  0  0  0  0  0  0  0  0  0  0
    2.4502   -1.3808   -2.7813 H   0  0  0  0  0  0  0  0  0  0  0  0
    3.2439   -2.1108   -1.3762 H   0  0  0  0  0  0  0  0  0  0  0  0
    3.2077   -2.0511    0.8018 H   0  0  0  0  0  0  0  0  0  0  0  0
    2.9615   -0.5839    1.7734 H   0  0  0  0  0  0  0  0  0  0  0  0
    2.0801   -2.0658    2.1335 H   0  0  0  0  0  0  0  0  0  0  0  0
   -0.0220    2.3705   -0.2310 H   0  0  0  0  0  0  0  0  0  0  0  0
   -0.7810    1.5007   -1.5944 H   0  0  0  0  0  0  0  0  0  0  0  0
   -1.5830    2.8869   -0.8442 H   0  0  0  0  0  0  0  0  0  0  0  0
    7.7722    0.7324    0.6364 H   0  0  0  0  0  0  0  0  0  0  0  0
   -6.9599    4.2343    0.3351 H   0  0  0  0  0  0  0  0  0  0  0  0
    6.0357    1.8741    1.9904 H   0  0  0  0  0  0  0  0  0  0  0  0
    7.1470   -0.3984   -1.4796 H   0  0  0  0  0  0  0  0  0  0  0  0
   -7.3105    2.0513   -0.7923 H   0  0  0  0  0  0  0  0  0  0  0  0
   -4.7386    4.7811    1.2918 H   0  0  0  0  0  0  0  0  0  0  0  0
    3.6851    1.8733    1.2479 H   0  0  0  0  0  0  0  0  0  0  0  0
    4.8083   -0.4005   -2.2441 H   0  0  0  0  0  0  0  0  0  0  0  0
   -5.4769    0.4403   -0.9794 H   0  0  0  0  0  0  0  0  0  0  0  0
   -2.8913    3.1743    1.1352 H   0  0  0  0  0  0  0  0  0  0  0  0
    2.6268    1.0464   -2.0569 H   0  0  0  0  0  0  0  0  0  0  0  0
    2.1058    1.5514   -0.4876 H   0  0  0  0  0  0  0  0  0  0  0  0
    0.3155   -0.5292    2.2040 H   0  0  0  0  0  0  0  0  0  0  0  0
    0.8349    0.8399    1.2684 H   0  0  0  0  0  0  0  0  0  0  0  0
   -0.5429   -2.7952    1.0576 H   0  0  0  0  0  0  0  0  0  0  0  0
    0.8121   -0.2960   -1.4009 H   0  0  0  0  0  0  0  0  0  0  0  0
  1 18  1  0
  2 18  1  0
  3 19  1  0
  4 25  1  0
  5 26  1  0
  6  8  2  0
  6  9  1  0
  7 10  2  0
  7 11  1  0
  8 12  1  0
  9 13  2  0
 10 14  1  0
 11 15  2  0
 12 20  2  0
 13 20  1  0
 14 21  2  0
 15 21  1  0
 16 19  1  0
 16 20  1  0
 17 22  1  0
 17 25  1  0
 18 23  1  0
 19 25  1  0
 21 27  1  0
 22 23  2  0
 22 26  1  0
 23 24  1  0
 24 27  1  0
 24 28  2  0
 26 27  1  0
  1 29  1  0
  1 30  1  0
  1 31  1  0
  2 32  1  0
  2 33  1  0
  2 34  1  0
  3 35  1  0
  3 36  1  0
  3 37  1  0
  4 38  1  0
  4 39  1  0
  4 40  1  0
  5 41  1  0
  5 42  1  0
  5 43  1  0
  6 44  1  0
  7 45  1  0
  8 46  1  0
  9 47  1  0
 10 48  1  0
 11 49  1  0
 12 50  1  0
 13 51  1  0
 14 52  1  0
 15 53  1  0
 16 54  1  0
 16 55  1  0
 17 56  1  0
 17 57  1  0
 18 58  1  0
 19 59  1  0
M  END
