
     RDKit          3D

 60 65  0  0  0  0  0  0  0  0999 V2000
   -2.6109   -4.8348   -0.7540 C   0  0  0  0  0  0  0  0  0  0  0  0
   -3.7584   -4.1548   -1.1560 C   0  0  0  0  0  0  0  0  0  0  0  0
   -1.4510   -4.1339   -0.4063 C   0  0  0  0  0  0  0  0  0  0  0  0
   -3.7832   -2.7583   -1.2243 C   0  0  0  0  0  0  0  0  0  0  0  0
   -5.1133    1.8421   -0.4672 C   0  0  0  0  0  0  0  0  0  0  0  0
   -3.3152    1.3312    1.2018 C   0  0  0  0  0  0  0  0  0  0  0  0
   -6.0669    2.2191    0.6677 C   0  0  0  0  0  0  0  0  0  0  0  0
   -4.1400    2.2993    2.0467 C   0  0  0  0  0  0  0  0  0  0  0  0
    5.4048    1.7763   -0.4319 C   0  0  0  0  0  0  0  0  0  0  0  0
    3.5411    0.4976   -1.5191 C   0  0  0  0  0  0  0  0  0  0  0  0
    3.0631    2.0078    0.4264 C   0  0  0  0  0  0  0  0  0  0  0  0
    5.2662   -0.7099   -0.1604 C   0  0  0  0  0  0  0  0  0  0  0  0
    4.7764    0.7984    1.7909 C   0  0  0  0  0  0  0  0  0  0  0  0
   -3.1812    0.3737   -1.1632 C   0  0  0  0  0  0  0  0  0  0  0  0
   -4.1002    0.7910   -0.0076 C   0  0  0  0  0  0  0  0  0  0  0  0
    3.9210    1.8219   -0.8356 C   0  0  0  0  0  0  0  0  0  0  0  0
    5.6502    0.6073    0.5372 C   0  0  0  0  0  0  0  0  0  0  0  0
    3.7775   -0.6851   -0.5594 C   0  0  0  0  0  0  0  0  0  0  0  0
    3.2852    0.8317    1.3988 C   0  0  0  0  0  0  0  0  0  0  0  0
   -1.4529   -2.7263   -0.4677 C   0  0  0  0  0  0  0  0  0  0  0  0
   -2.6119   -2.0701   -0.8744 C   0  0  0  0  0  0  0  0  0  0  0  0
    2.9303   -0.5141    0.7247 C   0  0  0  0  0  0  0  0  0  0  0  0
   -0.5101   -1.6916   -0.2020 C   0  0  0  0  0  0  0  0  0  0  0  0
    0.8792   -1.8415    0.2611 C   0  0  0  0  0  0  0  0  0  0  0  0
    1.5090   -0.6295    0.4623 N   0  0  0  0  0  0  0  0  0  0  0  0
   -1.0389   -0.4706   -0.4394 N   0  0  0  0  0  0  0  0  0  0  0  0
   -2.3029   -0.7343   -0.8274 N   0  0  0  0  0  0  0  0  0  0  0  0
    1.4237   -2.9272    0.4367 O   0  0  0  0  0  0  0  0  0  0  0  0
   -5.5220    1.9731    1.9643 O   0  0  0  0  0  0  0  0  0  0  0  0
   -2.6133   -5.9213   -0.7072 H   0  0  0  0  0  0  0  0  0  0  0  0
   -4.6501   -4.7195   -1.4196 H   0  0  0  0  0  0  0  0  0  0  0  0
   -0.5595   -4.6713   -0.0920 H   0  0  0  0  0  0  0  0  0  0  0  0
   -4.6829   -2.2375   -1.5350 H   0  0  0  0  0  0  0  0  0  0  0  0
   -4.5759    2.7421   -0.7938 H   0  0  0  0  0  0  0  0  0  0  0  0
   -5.6887    1.4989   -1.3343 H   0  0  0  0  0  0  0  0  0  0  0  0
   -3.0121    0.4797    1.8238 H   0  0  0  0  0  0  0  0  0  0  0  0
   -2.3891    1.8336    0.8977 H   0  0  0  0  0  0  0  0  0  0  0  0
   -6.9854    1.6272    0.5938 H   0  0  0  0  0  0  0  0  0  0  0  0
   -6.3557    3.2734    0.5940 H   0  0  0  0  0  0  0  0  0  0  0  0
   -3.9904    3.3360    1.7220 H   0  0  0  0  0  0  0  0  0  0  0  0
   -3.8305    2.2403    3.0948 H   0  0  0  0  0  0  0  0  0  0  0  0
    6.0330    1.6620   -1.3239 H   0  0  0  0  0  0  0  0  0  0  0  0
    5.6937    2.7226    0.0415 H   0  0  0  0  0  0  0  0  0  0  0  0
    2.4925    0.5268   -1.8382 H   0  0  0  0  0  0  0  0  0  0  0  0
    4.1412    0.3633   -2.4276 H   0  0  0  0  0  0  0  0  0  0  0  0
    3.3279    2.9514    0.9199 H   0  0  0  0  0  0  0  0  0  0  0  0
    2.0053    2.0893    0.1521 H   0  0  0  0  0  0  0  0  0  0  0  0
    5.8896   -0.8575   -1.0506 H   0  0  0  0  0  0  0  0  0  0  0  0
    5.4612   -1.5577    0.5074 H   0  0  0  0  0  0  0  0  0  0  0  0
    4.9594   -0.0163    2.5019 H   0  0  0  0  0  0  0  0  0  0  0  0
    5.0506    1.7308    2.2995 H   0  0  0  0  0  0  0  0  0  0  0  0
   -3.7705    0.0614   -2.0333 H   0  0  0  0  0  0  0  0  0  0  0  0
   -2.5516    1.2104   -1.4900 H   0  0  0  0  0  0  0  0  0  0  0  0
   -4.6641   -0.0916    0.3254 H   0  0  0  0  0  0  0  0  0  0  0  0
    3.7514    2.6565   -1.5248 H   0  0  0  0  0  0  0  0  0  0  0  0
    6.7074    0.5799    0.8238 H   0  0  0  0  0  0  0  0  0  0  0  0
    3.5207   -1.6217   -1.0677 H   0  0  0  0  0  0  0  0  0  0  0  0
    2.6717    0.9791    2.2953 H   0  0  0  0  0  0  0  0  0  0  0  0
    3.1811   -1.3299    1.4162 H   0  0  0  0  0  0  0  0  0  0  0  0
    0.9645    0.1714    0.1522 H   0  0  0  0  0  0  0  0  0  0  0  0
  1  2  2  0
  1  3  1  0
  2  4  1  0
  3 20  2  0
  4 21  2  0
  5  7  1  0
  5 15  1  0
  6  8  1  0
  6 15  1  0
  7 29  1  0
  8 29  1  0
  9 16  1  0
  9 17  1  0
 10 16  1  0
 10 18  1  0
 11 16  1  0
 11 19  1  0
 12 17  1  0
 12 18  1  0
 13 17  1  0
 13 19  1  0
 14 15  1  0
 14 27  1  0
 18 22  1  0
 19 22  1  0
 20 21  1  0
 20 23  1  0
 21 27  1  0
 22 25  1  0
 23 24  1  0
 23 26  2  0
 24 25  1  0
 24 28  2  0
 26 27  1  0
  1 30  1  0
  2 31  1  0
  3 32  1  0
  4 33  1  0
  5 34  1  0
  5 35  1  0
  6 36  1  0
  6 37  1  0
  7 38  1  0
  7 39  1  0
  8 40  1  0
  8 41  1  0
  9 42  1  0
  9 43  1  0
 10 44  1  0
 10 45  1  0
 11 46  1  0
 11 47  1  0
 12 48  1  0
 12 49  1  0
 13 50  1  0
 13 51  1  0
 14 52  1  0
 14 53  1  0
 15 54  1  0
 16 55  1  0
 17 56  1  0
 18 57  1  0
 19 58  1  0
 22 59  1  0
 25 60  1  0
M  END
