
     RDKit          3D

 60 65  0  0  0  0  0  0  0  0999 V2000
   -3.3311   -1.2580   -1.5426 C   0  0  0  0  0  0  0  0  0  0  0  0
    2.2264    0.5741   -1.5368 C   0  0  0  0  0  0  0  0  0  0  0  0
    4.8343    0.6955    0.6912 C   0  0  0  0  0  0  0  0  0  0  0  0
   -1.8297    1.8383   -1.0293 C   0  0  0  0  0  0  0  0  0  0  0  0
   -0.6442    1.7507   -0.0786 C   0  0  0  0  0  0  0  0  0  0  0  0
    6.0352    1.2627    0.5326 C   0  0  0  0  0  0  0  0  0  0  0  0
   -4.8490   -0.5228    1.1270 C   0  0  0  0  0  0  0  0  0  0  0  0
   -0.4301   -1.1863   -1.5073 C   0  0  0  0  0  0  0  0  0  0  0  0
   -3.4137   -1.0123    0.9517 C   0  0  0  0  0  0  0  0  0  0  0  0
    1.0146   -1.6086   -1.2093 C   0  0  0  0  0  0  0  0  0  0  0  0
   -3.6599    1.6964    0.7051 C   0  0  0  0  0  0  0  0  0  0  0  0
    2.7366   -1.4396    1.6374 C   0  0  0  0  0  0  0  0  0  0  0  0
    5.4275   -1.0414   -0.8106 C   0  0  0  0  0  0  0  0  0  0  0  0
    4.4859   -0.5166   -0.0118 C   0  0  0  0  0  0  0  0  0  0  0  0
   -3.0435    1.0404   -0.5483 C   0  0  0  0  0  0  0  0  0  0  0  0
   -4.9527    1.0018    1.1337 C   0  0  0  0  0  0  0  0  0  0  0  0
   -1.1727   -0.7857   -0.2108 C   0  0  0  0  0  0  0  0  0  0  0  0
   -0.4215    0.3531    0.5219 C   0  0  0  0  0  0  0  0  0  0  0  0
    3.1275   -1.1897    0.1550 C   0  0  0  0  0  0  0  0  0  0  0  0
    1.5840   -0.5352    1.9258 C   0  0  0  0  0  0  0  0  0  0  0  0
    7.0461    0.6698   -0.3600 C   0  0  0  0  0  0  0  0  0  0  0  0
   -2.7214   -0.4828   -0.3471 C   0  0  0  0  0  0  0  0  0  0  0  0
    1.8550   -0.5078   -0.5128 C   0  0  0  0  0  0  0  0  0  0  0  0
    1.0465    0.0337    0.6546 C   0  0  0  0  0  0  0  0  0  0  0  0
   -6.0152    1.3776    0.2581 O   0  0  0  0  0  0  0  0  0  0  0  0
    8.1420    1.2018   -0.4977 O   0  0  0  0  0  0  0  0  0  0  0  0
    6.6996   -0.4838   -1.0083 O   0  0  0  0  0  0  0  0  0  0  0  0
    1.7577    0.8457    1.5998 O   0  0  0  0  0  0  0  0  0  0  0  0
   -4.4147   -1.1142   -1.6104 H   0  0  0  0  0  0  0  0  0  0  0  0
   -3.1533   -2.3352   -1.4513 H   0  0  0  0  0  0  0  0  0  0  0  0
   -2.9133   -0.9173   -2.4963 H   0  0  0  0  0  0  0  0  0  0  0  0
    1.3533    0.9439   -2.0816 H   0  0  0  0  0  0  0  0  0  0  0  0
    2.6859    1.4454   -1.0593 H   0  0  0  0  0  0  0  0  0  0  0  0
    2.9202    0.1847   -2.2899 H   0  0  0  0  0  0  0  0  0  0  0  0
    4.1152    1.1585    1.3568 H   0  0  0  0  0  0  0  0  0  0  0  0
   -1.5346    1.4833   -2.0228 H   0  0  0  0  0  0  0  0  0  0  0  0
   -2.1007    2.8926   -1.1675 H   0  0  0  0  0  0  0  0  0  0  0  0
   -0.7970    2.4557    0.7499 H   0  0  0  0  0  0  0  0  0  0  0  0
    0.2442    2.1300   -0.5911 H   0  0  0  0  0  0  0  0  0  0  0  0
    6.3187    2.1723    1.0458 H   0  0  0  0  0  0  0  0  0  0  0  0
   -5.4958   -0.9585    0.3567 H   0  0  0  0  0  0  0  0  0  0  0  0
   -5.2335   -0.9072    2.0803 H   0  0  0  0  0  0  0  0  0  0  0  0
   -0.4470   -0.3838   -2.2483 H   0  0  0  0  0  0  0  0  0  0  0  0
   -0.9180   -2.0507   -1.9708 H   0  0  0  0  0  0  0  0  0  0  0  0
   -2.8399   -0.7101    1.8372 H   0  0  0  0  0  0  0  0  0  0  0  0
   -3.4091   -2.1101    0.9572 H   0  0  0  0  0  0  0  0  0  0  0  0
    0.9709   -2.5031   -0.5726 H   0  0  0  0  0  0  0  0  0  0  0  0
    1.5027   -1.9213   -2.1410 H   0  0  0  0  0  0  0  0  0  0  0  0
   -3.8652    2.7536    0.4950 H   0  0  0  0  0  0  0  0  0  0  0  0
   -2.9477    1.6709    1.5378 H   0  0  0  0  0  0  0  0  0  0  0  0
    3.5605   -1.2745    2.3388 H   0  0  0  0  0  0  0  0  0  0  0  0
    2.4061   -2.4783    1.7571 H   0  0  0  0  0  0  0  0  0  0  0  0
    5.3291   -1.9439   -1.3995 H   0  0  0  0  0  0  0  0  0  0  0  0
   -3.8001    1.1383   -1.3401 H   0  0  0  0  0  0  0  0  0  0  0  0
   -5.2317    1.3464    2.1362 H   0  0  0  0  0  0  0  0  0  0  0  0
   -1.0862   -1.6773    0.4305 H   0  0  0  0  0  0  0  0  0  0  0  0
   -0.8375    0.3939    1.5385 H   0  0  0  0  0  0  0  0  0  0  0  0
    3.2461   -2.1868   -0.2964 H   0  0  0  0  0  0  0  0  0  0  0  0
    0.9486   -0.8124    2.7508 H   0  0  0  0  0  0  0  0  0  0  0  0
   -6.1105    2.3441    0.3088 H   0  0  0  0  0  0  0  0  0  0  0  0
  1 22  1  0
  2 23  1  0
  3  6  2  0
  3 14  1  0
  4  5  1  0
  4 15  1  0
  5 18  1  0
  6 21  1  0
  7  9  1  0
  7 16  1  0
  8 10  1  0
  8 17  1  0
  9 22  1  0
 10 23  1  0
 11 15  1  0
 11 16  1  0
 12 19  1  0
 12 20  1  0
 13 14  2  0
 13 27  1  0
 14 19  1  0
 15 22  1  0
 16 25  1  0
 17 18  1  0
 17 22  1  0
 18 24  1  0
 19 23  1  0
 20 24  1  0
 20 28  1  0
 21 26  2  0
 21 27  1  0
 23 24  1  0
 24 28  1  0
  1 29  1  0
  1 30  1  0
  1 31  1  0
  2 32  1  0
  2 33  1  0
  2 34  1  0
  3 35  1  0
  4 36  1  0
  4 37  1  0
  5 38  1  0
  5 39  1  0
  6 40  1  0
  7 41  1  0
  7 42  1  0
  8 43  1  0
  8 44  1  0
  9 45  1  0
  9 46  1  0
 10 47  1  0
 10 48  1  0
 11 49  1  0
 11 50  1  0
 12 51  1  0
 12 52  1  0
 13 53  1  0
 15 54  1  0
 16 55  1  0
 17 56  1  0
 18 57  1  0
 19 58  1  0
 20 59  1  0
 25 60  1  0
M  END
