
     RDKit          3D

 63 65  0  0  0  0  0  0  0  0999 V2000
    9.1282    0.8786    0.7198 C   0  0  0  0  0  0  0  0  0  0  0  0
    1.9359   -2.1048   -1.1335 C   0  0  0  0  0  0  0  0  0  0  0  0
    2.0050    0.0191   -2.4564 C   0  0  0  0  0  0  0  0  0  0  0  0
   -5.1989    0.4489   -2.6819 C   0  0  0  0  0  0  0  0  0  0  0  0
   -4.5038   -1.5886   -1.4373 C   0  0  0  0  0  0  0  0  0  0  0  0
    7.6851    0.8549    1.1982 C   0  0  0  0  0  0  0  0  0  0  0  0
    6.7324    0.4278    0.0818 C   0  0  0  0  0  0  0  0  0  0  0  0
    5.2796    0.4240    0.5618 C   0  0  0  0  0  0  0  0  0  0  0  0
    4.3242   -0.0196   -0.5518 C   0  0  0  0  0  0  0  0  0  0  0  0
   -6.4026    0.8527    1.6935 C   0  0  0  0  0  0  0  0  0  0  0  0
   -6.1856    0.5478    0.2177 C   0  0  0  0  0  0  0  0  0  0  0  0
    2.8657    0.0101   -0.0693 C   0  0  0  0  0  0  0  0  0  0  0  0
    0.0707   -0.2156    0.8535 C   0  0  0  0  0  0  0  0  0  0  0  0
   -0.7414   -0.1310   -1.3840 C   0  0  0  0  0  0  0  0  0  0  0  0
   -4.2820   -0.6089    1.9129 C   0  0  0  0  0  0  0  0  0  0  0  0
    0.3527   -0.2880   -0.5189 C   0  0  0  0  0  0  0  0  0  0  0  0
   -5.5539   -0.0727    2.5374 C   0  0  0  0  0  0  0  0  0  0  0  0
   -3.7179    0.4487    0.9499 C   0  0  0  0  0  0  0  0  0  0  0  0
   -4.7107    0.7204   -0.2121 C   0  0  0  0  0  0  0  0  0  0  0  0
   -1.2215    0.0449    1.3255 C   0  0  0  0  0  0  0  0  0  0  0  0
   -2.0433    0.0874   -0.9053 C   0  0  0  0  0  0  0  0  0  0  0  0
   -2.3153    0.1748    0.4614 C   0  0  0  0  0  0  0  0  0  0  0  0
    1.7834   -0.5715   -1.0430 C   0  0  0  0  0  0  0  0  0  0  0  0
   -4.3436   -0.0582   -1.5051 C   0  0  0  0  0  0  0  0  0  0  0  0
   -5.8760   -0.3626    3.6885 O   0  0  0  0  0  0  0  0  0  0  0  0
   -1.3225    0.1846    2.6827 O   0  0  0  0  0  0  0  0  0  0  0  0
   -2.9882    0.2341   -1.8843 O   0  0  0  0  0  0  0  0  0  0  0  0
    9.4446   -0.1115    0.3756 H   0  0  0  0  0  0  0  0  0  0  0  0
    9.2562    1.5869   -0.1054 H   0  0  0  0  0  0  0  0  0  0  0  0
    9.7919    1.1827    1.5353 H   0  0  0  0  0  0  0  0  0  0  0  0
    1.1677   -2.5446   -1.7817 H   0  0  0  0  0  0  0  0  0  0  0  0
    2.9086   -2.3927   -1.5453 H   0  0  0  0  0  0  0  0  0  0  0  0
    1.8377   -2.5763   -0.1484 H   0  0  0  0  0  0  0  0  0  0  0  0
    1.3263   -0.4133   -3.1993 H   0  0  0  0  0  0  0  0  0  0  0  0
    3.0100   -0.1921   -2.8350 H   0  0  0  0  0  0  0  0  0  0  0  0
    1.8621    1.1057   -2.4571 H   0  0  0  0  0  0  0  0  0  0  0  0
   -6.2591    0.2092   -2.5554 H   0  0  0  0  0  0  0  0  0  0  0  0
   -5.0974    1.5342   -2.7995 H   0  0  0  0  0  0  0  0  0  0  0  0
   -4.8613    0.0075   -3.6281 H   0  0  0  0  0  0  0  0  0  0  0  0
   -4.1895   -2.0453   -2.3841 H   0  0  0  0  0  0  0  0  0  0  0  0
   -3.8661   -2.0397   -0.6719 H   0  0  0  0  0  0  0  0  0  0  0  0
   -5.5368   -1.8940   -1.2503 H   0  0  0  0  0  0  0  0  0  0  0  0
    7.5987    0.1640    2.0453 H   0  0  0  0  0  0  0  0  0  0  0  0
    7.4108    1.8518    1.5630 H   0  0  0  0  0  0  0  0  0  0  0  0
    7.0063   -0.5746   -0.2705 H   0  0  0  0  0  0  0  0  0  0  0  0
    6.8352    1.1100   -0.7713 H   0  0  0  0  0  0  0  0  0  0  0  0
    5.0036    1.4292    0.9050 H   0  0  0  0  0  0  0  0  0  0  0  0
    5.1787   -0.2504    1.4213 H   0  0  0  0  0  0  0  0  0  0  0  0
    4.4509    0.6525   -1.4077 H   0  0  0  0  0  0  0  0  0  0  0  0
    4.5980   -1.0287   -0.8772 H   0  0  0  0  0  0  0  0  0  0  0  0
   -6.1320    1.8877    1.9257 H   0  0  0  0  0  0  0  0  0  0  0  0
   -7.4551    0.6961    1.9530 H   0  0  0  0  0  0  0  0  0  0  0  0
   -6.8231    1.2050   -0.3853 H   0  0  0  0  0  0  0  0  0  0  0  0
   -6.5294   -0.4747    0.0291 H   0  0  0  0  0  0  0  0  0  0  0  0
    2.6113    1.0528    0.1677 H   0  0  0  0  0  0  0  0  0  0  0  0
    2.8315   -0.5419    0.8787 H   0  0  0  0  0  0  0  0  0  0  0  0
    0.8527   -0.3425    1.5973 H   0  0  0  0  0  0  0  0  0  0  0  0
   -0.6204   -0.1928   -2.4619 H   0  0  0  0  0  0  0  0  0  0  0  0
   -3.5881   -0.8371    2.7266 H   0  0  0  0  0  0  0  0  0  0  0  0
   -4.5150   -1.5509    1.4090 H   0  0  0  0  0  0  0  0  0  0  0  0
   -3.6525    1.3953    1.5094 H   0  0  0  0  0  0  0  0  0  0  0  0
   -4.5753    1.7882   -0.4501 H   0  0  0  0  0  0  0  0  0  0  0  0
   -2.0375    0.8072    2.8857 H   0  0  0  0  0  0  0  0  0  0  0  0
  1  6  1  0
  2 23  1  0
  3 23  1  0
  4 24  1  0
  5 24  1  0
  6  7  1  0
  7  8  1  0
  8  9  1  0
  9 12  1  0
 10 11  1  0
 10 17  1  0
 11 19  1  0
 12 23  1  0
 13 16  2  0
 13 20  1  0
 14 16  1  0
 14 21  2  0
 15 17  1  0
 15 18  1  0
 16 23  1  0
 17 25  2  0
 18 19  1  0
 18 22  1  0
 19 24  1  0
 20 22  2  0
 20 26  1  0
 21 22  1  0
 21 27  1  0
 24 27  1  0
  1 28  1  0
  1 29  1  0
  1 30  1  0
  2 31  1  0
  2 32  1  0
  2 33  1  0
  3 34  1  0
  3 35  1  0
  3 36  1  0
  4 37  1  0
  4 38  1  0
  4 39  1  0
  5 40  1  0
  5 41  1  0
  5 42  1  0
  6 43  1  0
  6 44  1  0
  7 45  1  0
  7 46  1  0
  8 47  1  0
  8 48  1  0
  9 49  1  0
  9 50  1  0
 10 51  1  0
 10 52  1  0
 11 53  1  0
 11 54  1  0
 12 55  1  0
 12 56  1  0
 13 57  1  0
 14 58  1  0
 15 59  1  0
 15 60  1  0
 18 61  1  0
 19 62  1  0
 26 63  1  0
M  END
