
     RDKit          3D

 51 54  0  0  0  0  0  0  0  0999 V2000
   -1.9489   -3.0087   -1.8650 C   0  0  0  0  0  0  0  0  0  0  0  0
   -2.8565   -1.8121   -1.6007 C   0  0  0  0  0  0  0  0  0  0  0  0
   -5.6812    1.6435    1.1736 C   0  0  0  0  0  0  0  0  0  0  0  0
    6.3420   -1.3403   -2.3593 C   0  0  0  0  0  0  0  0  0  0  0  0
   -5.6581    1.2622   -0.1657 C   0  0  0  0  0  0  0  0  0  0  0  0
   -4.7935    1.0629    2.0743 C   0  0  0  0  0  0  0  0  0  0  0  0
    5.3915   -2.2311   -1.8664 C   0  0  0  0  0  0  0  0  0  0  0  0
    6.1839    0.0282   -2.1538 C   0  0  0  0  0  0  0  0  0  0  0  0
    0.2289    2.5176    3.2489 C   0  0  0  0  0  0  0  0  0  0  0  0
    1.5715    2.7532    3.5058 C   0  0  0  0  0  0  0  0  0  0  0  0
   -4.7443    0.3020   -0.6094 C   0  0  0  0  0  0  0  0  0  0  0  0
   -3.8807    0.1047    1.6318 C   0  0  0  0  0  0  0  0  0  0  0  0
    4.2769   -1.7513   -1.1742 C   0  0  0  0  0  0  0  0  0  0  0  0
    5.0688    0.5067   -1.4614 C   0  0  0  0  0  0  0  0  0  0  0  0
   -0.1307    1.7328    2.1555 C   0  0  0  0  0  0  0  0  0  0  0  0
    2.5431    2.2022    2.6673 C   0  0  0  0  0  0  0  0  0  0  0  0
   -3.8339   -0.2865    0.2814 C   0  0  0  0  0  0  0  0  0  0  0  0
    4.0890   -0.3722   -0.9706 C   0  0  0  0  0  0  0  0  0  0  0  0
    0.8525    1.1711    1.3018 C   0  0  0  0  0  0  0  0  0  0  0  0
   -2.8058   -1.3335   -0.1339 C   0  0  0  0  0  0  0  0  0  0  0  0
    2.2107    1.4171    1.5711 C   0  0  0  0  0  0  0  0  0  0  0  0
    0.5745    0.3713    0.1712 C   0  0  0  0  0  0  0  0  0  0  0  0
    2.9101    0.1438   -0.2551 C   0  0  0  0  0  0  0  0  0  0  0  0
    1.5980   -0.1394   -0.6271 C   0  0  0  0  0  0  0  0  0  0  0  0
   -0.8117    0.0570   -0.1788 C   0  0  0  0  0  0  0  0  0  0  0  0
    3.2065    0.9238    0.8163 N   0  0  0  0  0  0  0  0  0  0  0  0
   -1.4305   -0.9799    0.2378 N   0  0  0  0  0  0  0  0  0  0  0  0
    1.2819   -0.8655   -1.7458 O   0  0  0  0  0  0  0  0  0  0  0  0
   -1.3023    1.0336   -0.9599 O   0  0  0  0  0  0  0  0  0  0  0  0
   -2.2005   -3.8449   -1.2048 H   0  0  0  0  0  0  0  0  0  0  0  0
   -2.0670   -3.3477   -2.8993 H   0  0  0  0  0  0  0  0  0  0  0  0
   -0.8953   -2.7560   -1.7155 H   0  0  0  0  0  0  0  0  0  0  0  0
   -2.5832   -1.0042   -2.2890 H   0  0  0  0  0  0  0  0  0  0  0  0
   -3.8810   -2.1123   -1.8538 H   0  0  0  0  0  0  0  0  0  0  0  0
   -6.3945    2.3887    1.5159 H   0  0  0  0  0  0  0  0  0  0  0  0
    7.2128   -1.7129   -2.8927 H   0  0  0  0  0  0  0  0  0  0  0  0
   -6.3563    1.7114   -0.8679 H   0  0  0  0  0  0  0  0  0  0  0  0
   -4.8120    1.3518    3.1218 H   0  0  0  0  0  0  0  0  0  0  0  0
    5.5224   -3.3007   -2.0108 H   0  0  0  0  0  0  0  0  0  0  0  0
    6.9311    0.7250   -2.5247 H   0  0  0  0  0  0  0  0  0  0  0  0
   -0.5371    2.9419    3.8925 H   0  0  0  0  0  0  0  0  0  0  0  0
    1.8695    3.3630    4.3546 H   0  0  0  0  0  0  0  0  0  0  0  0
   -4.7634    0.0290   -1.6613 H   0  0  0  0  0  0  0  0  0  0  0  0
   -3.1917   -0.3434    2.3468 H   0  0  0  0  0  0  0  0  0  0  0  0
    3.5570   -2.4661   -0.7772 H   0  0  0  0  0  0  0  0  0  0  0  0
    4.9638    1.5783   -1.2977 H   0  0  0  0  0  0  0  0  0  0  0  0
   -1.1886    1.5633    1.9660 H   0  0  0  0  0  0  0  0  0  0  0  0
    3.5942    2.3903    2.8763 H   0  0  0  0  0  0  0  0  0  0  0  0
   -3.0617   -2.2163    0.4700 H   0  0  0  0  0  0  0  0  0  0  0  0
    2.0727   -0.9546   -2.3060 H   0  0  0  0  0  0  0  0  0  0  0  0
   -2.2429    0.9033   -1.1385 H   0  0  0  0  0  0  0  0  0  0  0  0
  1  2  1  0
  2 20  1  0
  3  5  2  0
  3  6  1  0
  4  7  2  0
  4  8  1  0
  5 11  1  0
  6 12  2  0
  7 13  1  0
  8 14  2  0
  9 10  2  0
  9 15  1  0
 10 16  1  0
 11 17  2  0
 12 17  1  0
 13 18  2  0
 14 18  1  0
 15 19  2  0
 16 21  2  0
 17 20  1  0
 18 23  1  0
 19 21  1  0
 19 22  1  0
 20 27  1  0
 21 26  1  0
 22 24  2  0
 22 25  1  0
 23 24  1  0
 23 26  2  0
 24 28  1  0
 25 27  2  3
 25 29  1  0
  1 30  1  0
  1 31  1  0
  1 32  1  0
  2 33  1  0
  2 34  1  0
  3 35  1  0
  4 36  1  0
  5 37  1  0
  6 38  1  0
  7 39  1  0
  8 40  1  0
  9 41  1  0
 10 42  1  0
 11 43  1  0
 12 44  1  0
 13 45  1  0
 14 46  1  0
 15 47  1  0
 16 48  1  0
 20 49  1  0
 28 50  1  0
 29 51  1  0
M  END
