
     RDKit          3D

 53 57  0  0  0  0  0  0  0  0999 V2000
    6.0804    0.0973   -1.5322 C   0  0  0  0  0  0  0  0  0  0  0  0
    5.7314   -1.3751   -1.3096 C   0  0  0  0  0  0  0  0  0  0  0  0
    4.9920    1.0587   -1.0509 C   0  0  0  0  0  0  0  0  0  0  0  0
   -0.4080    3.4881    1.8057 C   0  0  0  0  0  0  0  0  0  0  0  0
    0.9776    3.5179    1.8901 C   0  0  0  0  0  0  0  0  0  0  0  0
   -6.3755   -1.5247    1.5367 C   0  0  0  0  0  0  0  0  0  0  0  0
   -5.6296   -0.4241   -3.1324 C   0  0  0  0  0  0  0  0  0  0  0  0
    4.8438   -1.5589   -0.0858 C   0  0  0  0  0  0  0  0  0  0  0  0
    3.6078    0.4258   -1.1259 C   0  0  0  0  0  0  0  0  0  0  0  0
   -6.8200   -1.5108    0.2142 C   0  0  0  0  0  0  0  0  0  0  0  0
   -6.4488   -0.9557   -2.1441 C   0  0  0  0  0  0  0  0  0  0  0  0
   -1.0763    2.2912    1.5273 C   0  0  0  0  0  0  0  0  0  0  0  0
    1.7304    2.3579    1.6953 C   0  0  0  0  0  0  0  0  0  0  0  0
   -5.1169   -1.0237    1.8424 C   0  0  0  0  0  0  0  0  0  0  0  0
   -4.3946    0.0653   -2.7559 C   0  0  0  0  0  0  0  0  0  0  0  0
    2.9227   -0.5299    1.1646 C   0  0  0  0  0  0  0  0  0  0  0  0
    0.4830   -0.9703    0.9544 C   0  0  0  0  0  0  0  0  0  0  0  0
    3.4912   -0.8304   -0.2370 C   0  0  0  0  0  0  0  0  0  0  0  0
   -6.0106   -0.9868   -0.8131 C   0  0  0  0  0  0  0  0  0  0  0  0
   -0.3457    1.0961    1.3316 C   0  0  0  0  0  0  0  0  0  0  0  0
   -0.7052   -0.2650    1.0454 C   0  0  0  0  0  0  0  0  0  0  0  0
    1.0531    1.1578    1.4145 C   0  0  0  0  0  0  0  0  0  0  0  0
   -4.3156   -0.5262    0.8109 C   0  0  0  0  0  0  0  0  0  0  0  0
   -4.7294   -0.4720   -0.5236 C   0  0  0  0  0  0  0  0  0  0  0  0
   -2.0196   -0.8815    0.8702 C   0  0  0  0  0  0  0  0  0  0  0  0
   -3.9378    0.0559   -1.4857 N   0  0  0  0  0  0  0  0  0  0  0  0
    1.5283   -0.1124    1.1641 N   0  0  0  0  0  0  0  0  0  0  0  0
   -2.1582   -2.0621    0.5587 O   0  0  0  0  0  0  0  0  0  0  0  0
   -3.0600   -0.0063    1.1608 O   0  0  0  0  0  0  0  0  0  0  0  0
    7.0171    0.3403   -1.0159 H   0  0  0  0  0  0  0  0  0  0  0  0
    6.2710    0.2553   -2.6006 H   0  0  0  0  0  0  0  0  0  0  0  0
    5.2137   -1.7670   -2.1940 H   0  0  0  0  0  0  0  0  0  0  0  0
    6.6527   -1.9589   -1.2031 H   0  0  0  0  0  0  0  0  0  0  0  0
    5.0230    1.9753   -1.6509 H   0  0  0  0  0  0  0  0  0  0  0  0
    5.1983    1.3574   -0.0156 H   0  0  0  0  0  0  0  0  0  0  0  0
   -0.9808    4.4003    1.9527 H   0  0  0  0  0  0  0  0  0  0  0  0
    1.4841    4.4559    2.1045 H   0  0  0  0  0  0  0  0  0  0  0  0
   -7.0094   -1.9276    2.3223 H   0  0  0  0  0  0  0  0  0  0  0  0
   -5.9471   -0.3926   -4.1682 H   0  0  0  0  0  0  0  0  0  0  0  0
    5.3818   -1.1904    0.7975 H   0  0  0  0  0  0  0  0  0  0  0  0
    4.6624   -2.6267    0.0857 H   0  0  0  0  0  0  0  0  0  0  0  0
    3.4152    0.1379   -2.1681 H   0  0  0  0  0  0  0  0  0  0  0  0
    2.8445    1.1690   -0.8786 H   0  0  0  0  0  0  0  0  0  0  0  0
   -7.8068   -1.9089   -0.0134 H   0  0  0  0  0  0  0  0  0  0  0  0
   -7.4267   -1.3449   -2.4156 H   0  0  0  0  0  0  0  0  0  0  0  0
   -2.1605    2.2982    1.4582 H   0  0  0  0  0  0  0  0  0  0  0  0
    2.8131    2.4003    1.7530 H   0  0  0  0  0  0  0  0  0  0  0  0
   -4.7548   -1.0277    2.8659 H   0  0  0  0  0  0  0  0  0  0  0  0
   -3.7140    0.4923   -3.4870 H   0  0  0  0  0  0  0  0  0  0  0  0
    2.9648   -1.4315    1.7897 H   0  0  0  0  0  0  0  0  0  0  0  0
    3.5186    0.2334    1.6750 H   0  0  0  0  0  0  0  0  0  0  0  0
    0.6511   -2.0213    0.7519 H   0  0  0  0  0  0  0  0  0  0  0  0
    2.7985   -1.5144   -0.7465 H   0  0  0  0  0  0  0  0  0  0  0  0
  1  2  1  0
  1  3  1  0
  2  8  1  0
  3  9  1  0
  4  5  2  0
  4 12  1  0
  5 13  1  0
  6 10  2  0
  6 14  1  0
  7 11  1  0
  7 15  2  0
  8 18  1  0
  9 18  1  0
 10 19  1  0
 11 19  2  0
 12 20  2  0
 13 22  2  0
 14 23  2  0
 15 26  1  0
 16 18  1  0
 16 27  1  0
 17 21  2  0
 17 27  1  0
 19 24  1  0
 20 21  1  0
 20 22  1  0
 21 25  1  0
 22 27  1  0
 23 24  1  0
 23 29  1  0
 24 26  2  0
 25 28  2  0
 25 29  1  0
  1 30  1  0
  1 31  1  0
  2 32  1  0
  2 33  1  0
  3 34  1  0
  3 35  1  0
  4 36  1  0
  5 37  1  0
  6 38  1  0
  7 39  1  0
  8 40  1  0
  8 41  1  0
  9 42  1  0
  9 43  1  0
 10 44  1  0
 11 45  1  0
 12 46  1  0
 13 47  1  0
 14 48  1  0
 15 49  1  0
 16 50  1  0
 16 51  1  0
 17 52  1  0
 18 53  1  0
M  END
