
     RDKit          3D

 16 15  0  0  0  0  0  0  0  0999 V2000
   -0.4600    0.0090    0.7010 C   0  0  0  0  0  0  0  0  0  0  0  0
    0.4600   -0.0090   -0.5251 C   0  0  0  0  0  0  0  0  0  0  0  0
   -1.9157    0.2427    0.3196 C   0  0  0  0  0  0  0  0  0  0  0  0
    1.9157   -0.2427   -0.1437 C   0  0  0  0  0  0  0  0  0  0  0  0
   -2.3872   -0.8375   -0.4746 O   0  0  0  0  0  0  0  0  0  0  0  0
    2.3872    0.8375    0.6505 O   0  0  0  0  0  0  0  0  0  0  0  0
   -0.1449    0.7955    1.3959 H   0  0  0  0  0  0  0  0  0  0  0  0
   -0.3722   -0.9517    1.2228 H   0  0  0  0  0  0  0  0  0  0  0  0
    0.1449   -0.7955   -1.2200 H   0  0  0  0  0  0  0  0  0  0  0  0
    0.3722    0.9517   -1.0469 H   0  0  0  0  0  0  0  0  0  0  0  0
   -2.0291    1.1730   -0.2462 H   0  0  0  0  0  0  0  0  0  0  0  0
   -2.5342    0.3018    1.2208 H   0  0  0  0  0  0  0  0  0  0  0  0
    2.0291   -1.1730    0.4221 H   0  0  0  0  0  0  0  0  0  0  0  0
    2.5342   -0.3018   -1.0448 H   0  0  0  0  0  0  0  0  0  0  0  0
   -3.3167   -0.6469   -0.6877 H   0  0  0  0  0  0  0  0  0  0  0  0
    3.3167    0.6469    0.8636 H   0  0  0  0  0  0  0  0  0  0  0  0
  1  2  1  0
  1  3  1  0
  2  4  1  0
  3  5  1  0
  4  6  1  0
  1  7  1  0
  1  8  1  0
  2  9  1  0
  2 10  1  0
  3 11  1  0
  3 12  1  0
  4 13  1  0
  4 14  1  0
  5 15  1  0
  6 16  1  0
M  END
