
     RDKit          3D

 58 62  0  0  0  0  0  0  0  0999 V2000
   -3.1994    3.2680    3.5810 C   0  0  0  0  0  0  0  0  0  0  0  0
   -1.8342    0.2706   -4.2892 C   0  0  0  0  0  0  0  0  0  0  0  0
   -3.2280   -3.5546    1.8195 C   0  0  0  0  0  0  0  0  0  0  0  0
   -1.7628   -0.9464   -3.6201 C   0  0  0  0  0  0  0  0  0  0  0  0
   -1.8667    1.4561   -3.5630 C   0  0  0  0  0  0  0  0  0  0  0  0
   -4.0121   -2.7912    0.9626 C   0  0  0  0  0  0  0  0  0  0  0  0
   -1.9435   -3.1283    2.1430 C   0  0  0  0  0  0  0  0  0  0  0  0
   -1.7327   -0.9793   -2.2230 C   0  0  0  0  0  0  0  0  0  0  0  0
   -1.8356    1.4255   -2.1660 C   0  0  0  0  0  0  0  0  0  0  0  0
   -3.5056   -1.6070    0.4232 C   0  0  0  0  0  0  0  0  0  0  0  0
   -1.4344   -1.9415    1.6043 C   0  0  0  0  0  0  0  0  0  0  0  0
    4.3972    0.4732   -1.5252 C   0  0  0  0  0  0  0  0  0  0  0  0
    4.9631    0.3721    0.9071 C   0  0  0  0  0  0  0  0  0  0  0  0
    3.7210   -0.9012   -1.4513 C   0  0  0  0  0  0  0  0  0  0  0  0
    4.3530   -1.0351    0.9682 C   0  0  0  0  0  0  0  0  0  0  0  0
   -0.1994    0.5376    0.4521 C   0  0  0  0  0  0  0  0  0  0  0  0
    0.8764   -0.3147   -0.2507 C   0  0  0  0  0  0  0  0  0  0  0  0
    2.7369    1.2418    0.1625 C   0  0  0  0  0  0  0  0  0  0  0  0
   -3.2249    2.6047    2.2679 C   0  0  0  0  0  0  0  0  0  0  0  0
    4.2411    1.1909   -0.1744 C   0  0  0  0  0  0  0  0  0  0  0  0
   -1.7902    0.2057   -1.4596 C   0  0  0  0  0  0  0  0  0  0  0  0
   -2.1955   -1.1616    0.7159 C   0  0  0  0  0  0  0  0  0  0  0  0
    3.1812   -1.1472   -0.0295 C   0  0  0  0  0  0  0  0  0  0  0  0
   -2.5667    1.2753    0.7395 C   0  0  0  0  0  0  0  0  0  0  0  0
   -1.6956    0.1824    0.1030 C   0  0  0  0  0  0  0  0  0  0  0  0
   -4.0624    2.7535    1.2660 N   0  0  0  0  0  0  0  0  0  0  0  0
   -3.6465    1.8830    0.2814 N   0  0  0  0  0  0  0  0  0  0  0  0
    2.1963   -0.1186    0.3671 N   0  0  0  0  0  0  0  0  0  0  0  0
   -2.2441    1.6878    2.0133 O   0  0  0  0  0  0  0  0  0  0  0  0
   -2.2711    3.8328    3.7073 H   0  0  0  0  0  0  0  0  0  0  0  0
   -4.0389    3.9624    3.6802 H   0  0  0  0  0  0  0  0  0  0  0  0
   -3.2692    2.5298    4.3854 H   0  0  0  0  0  0  0  0  0  0  0  0
   -1.8610    0.2957   -5.3752 H   0  0  0  0  0  0  0  0  0  0  0  0
   -3.6205   -4.4751    2.2433 H   0  0  0  0  0  0  0  0  0  0  0  0
   -1.7276   -1.8751   -4.1840 H   0  0  0  0  0  0  0  0  0  0  0  0
   -1.9181    2.4103   -4.0816 H   0  0  0  0  0  0  0  0  0  0  0  0
   -5.0214   -3.1103    0.7158 H   0  0  0  0  0  0  0  0  0  0  0  0
   -1.3338   -3.7168    2.8245 H   0  0  0  0  0  0  0  0  0  0  0  0
   -1.6539   -1.9531   -1.7429 H   0  0  0  0  0  0  0  0  0  0  0  0
   -1.8528    2.3777   -1.6380 H   0  0  0  0  0  0  0  0  0  0  0  0
   -4.1494   -1.0232   -0.2361 H   0  0  0  0  0  0  0  0  0  0  0  0
   -0.4329   -1.6501    1.9102 H   0  0  0  0  0  0  0  0  0  0  0  0
    5.4579    0.3592   -1.7782 H   0  0  0  0  0  0  0  0  0  0  0  0
    3.9430    1.0669   -2.3275 H   0  0  0  0  0  0  0  0  0  0  0  0
    6.0357    0.3073    0.6902 H   0  0  0  0  0  0  0  0  0  0  0  0
    4.8654    0.8635    1.8825 H   0  0  0  0  0  0  0  0  0  0  0  0
    2.9164   -0.9648   -2.1928 H   0  0  0  0  0  0  0  0  0  0  0  0
    4.4458   -1.6804   -1.7171 H   0  0  0  0  0  0  0  0  0  0  0  0
    5.1207   -1.7824    0.7330 H   0  0  0  0  0  0  0  0  0  0  0  0
    4.0121   -1.2488    1.9890 H   0  0  0  0  0  0  0  0  0  0  0  0
   -0.0484    0.4864    1.5394 H   0  0  0  0  0  0  0  0  0  0  0  0
   -0.0171    1.5909    0.1914 H   0  0  0  0  0  0  0  0  0  0  0  0
    0.6061   -1.3727   -0.1760 H   0  0  0  0  0  0  0  0  0  0  0  0
    0.9210   -0.0727   -1.3187 H   0  0  0  0  0  0  0  0  0  0  0  0
    2.5786    1.8208    1.0797 H   0  0  0  0  0  0  0  0  0  0  0  0
    2.2187    1.7706   -0.6479 H   0  0  0  0  0  0  0  0  0  0  0  0
    4.6575    2.2022   -0.2297 H   0  0  0  0  0  0  0  0  0  0  0  0
    2.7510   -2.1525    0.0483 H   0  0  0  0  0  0  0  0  0  0  0  0
  1 19  1  0
  2  4  2  0
  2  5  1  0
  3  6  2  0
  3  7  1  0
  4  8  1  0
  5  9  2  0
  6 10  1  0
  7 11  2  0
  8 21  2  0
  9 21  1  0
 10 22  2  0
 11 22  1  0
 12 14  1  0
 12 20  1  0
 13 15  1  0
 13 20  1  0
 14 23  1  0
 15 23  1  0
 16 17  1  0
 16 25  1  0
 17 28  1  0
 18 20  1  0
 18 28  1  0
 19 26  2  0
 19 29  1  0
 21 25  1  0
 22 25  1  0
 23 28  1  0
 24 25  1  0
 24 27  2  0
 24 29  1  0
 26 27  1  0
  1 30  1  0
  1 31  1  0
  1 32  1  0
  2 33  1  0
  3 34  1  0
  4 35  1  0
  5 36  1  0
  6 37  1  0
  7 38  1  0
  8 39  1  0
  9 40  1  0
 10 41  1  0
 11 42  1  0
 12 43  1  0
 12 44  1  0
 13 45  1  0
 13 46  1  0
 14 47  1  0
 14 48  1  0
 15 49  1  0
 15 50  1  0
 16 51  1  0
 16 52  1  0
 17 53  1  0
 17 54  1  0
 18 55  1  0
 18 56  1  0
 20 57  1  0
 23 58  1  0
M  END
