
     RDKit          3D

 58 62  0  0  0  0  0  0  0  0999 V2000
   -4.9320   -1.9347    0.7221 C   0  0  0  0  0  0  0  0  0  0  0  0
   -4.5742   -1.1284   -1.5839 C   0  0  0  0  0  0  0  0  0  0  0  0
   -5.3150    3.0273    1.5045 C   0  0  0  0  0  0  0  0  0  0  0  0
   -4.5614    2.1402    2.2650 C   0  0  0  0  0  0  0  0  0  0  0  0
   -5.6957    2.6768    0.2132 C   0  0  0  0  0  0  0  0  0  0  0  0
    0.4902   -4.1086    1.3813 C   0  0  0  0  0  0  0  0  0  0  0  0
    1.7900   -3.7647    1.7432 C   0  0  0  0  0  0  0  0  0  0  0  0
   -4.1971    0.9001    1.7350 C   0  0  0  0  0  0  0  0  0  0  0  0
   -5.3301    1.4357   -0.3192 C   0  0  0  0  0  0  0  0  0  0  0  0
   -0.3446   -3.1800    0.7490 C   0  0  0  0  0  0  0  0  0  0  0  0
    2.2985   -2.4908    1.4759 C   0  0  0  0  0  0  0  0  0  0  0  0
    4.8210    2.8934   -1.4995 C   0  0  0  0  0  0  0  0  0  0  0  0
    5.2429    2.3137   -0.1417 C   0  0  0  0  0  0  0  0  0  0  0  0
    5.8001    0.7491   -1.8346 C   0  0  0  0  0  0  0  0  0  0  0  0
    3.4171    0.8771   -1.9566 C   0  0  0  0  0  0  0  0  0  0  0  0
    2.8581    0.5070    0.5382 C   0  0  0  0  0  0  0  0  0  0  0  0
    4.6854    1.6401   -2.3817 C   0  0  0  0  0  0  0  0  0  0  0  0
    5.2592    0.7977   -0.4024 C   0  0  0  0  0  0  0  0  0  0  0  0
    3.8305    0.2380   -0.6107 C   0  0  0  0  0  0  0  0  0  0  0  0
   -4.5761    0.5164    0.4310 C   0  0  0  0  0  0  0  0  0  0  0  0
    0.1377   -1.8793    0.4876 C   0  0  0  0  0  0  0  0  0  0  0  0
    1.4492   -1.5710    0.8434 C   0  0  0  0  0  0  0  0  0  0  0  0
   -0.3833   -0.6835   -0.1061 C   0  0  0  0  0  0  0  0  0  0  0  0
   -1.7444   -0.4383   -0.6258 C   0  0  0  0  0  0  0  0  0  0  0  0
   -4.1801   -0.8664   -0.1119 C   0  0  0  0  0  0  0  0  0  0  0  0
   -2.7394   -1.0947    0.0819 N   0  0  0  0  0  0  0  0  0  0  0  0
    0.5553    0.2803   -0.1379 N   0  0  0  0  0  0  0  0  0  0  0  0
    1.6381   -0.2786    0.4250 N   0  0  0  0  0  0  0  0  0  0  0  0
   -1.9673    0.2957   -1.5836 O   0  0  0  0  0  0  0  0  0  0  0  0
   -4.6800   -2.9472    0.3832 H   0  0  0  0  0  0  0  0  0  0  0  0
   -6.0189   -1.8121    0.6433 H   0  0  0  0  0  0  0  0  0  0  0  0
   -4.6712   -1.8870    1.7861 H   0  0  0  0  0  0  0  0  0  0  0  0
   -4.1986   -2.1018   -1.9212 H   0  0  0  0  0  0  0  0  0  0  0  0
   -5.6636   -1.1355   -1.7123 H   0  0  0  0  0  0  0  0  0  0  0  0
   -4.1762   -0.3756   -2.2709 H   0  0  0  0  0  0  0  0  0  0  0  0
   -5.5975    3.9931    1.9135 H   0  0  0  0  0  0  0  0  0  0  0  0
   -4.2541    2.4114    3.2703 H   0  0  0  0  0  0  0  0  0  0  0  0
   -6.2772    3.3710   -0.3891 H   0  0  0  0  0  0  0  0  0  0  0  0
    0.1218   -5.1117    1.5845 H   0  0  0  0  0  0  0  0  0  0  0  0
    2.4242   -4.5017    2.2321 H   0  0  0  0  0  0  0  0  0  0  0  0
   -3.6065    0.2322    2.3585 H   0  0  0  0  0  0  0  0  0  0  0  0
   -5.6443    1.2131   -1.3348 H   0  0  0  0  0  0  0  0  0  0  0  0
   -1.3471   -3.4769    0.4538 H   0  0  0  0  0  0  0  0  0  0  0  0
    3.3181   -2.2354    1.7459 H   0  0  0  0  0  0  0  0  0  0  0  0
    3.8890    3.4639   -1.4323 H   0  0  0  0  0  0  0  0  0  0  0  0
    5.6024    3.5588   -1.8832 H   0  0  0  0  0  0  0  0  0  0  0  0
    6.2485    2.6672    0.1162 H   0  0  0  0  0  0  0  0  0  0  0  0
    4.5721    2.6147    0.6670 H   0  0  0  0  0  0  0  0  0  0  0  0
    6.7964    1.1922   -1.9366 H   0  0  0  0  0  0  0  0  0  0  0  0
    5.8008   -0.2577   -2.2660 H   0  0  0  0  0  0  0  0  0  0  0  0
    2.5487    1.5399   -1.8801 H   0  0  0  0  0  0  0  0  0  0  0  0
    3.1807    0.0898   -2.6829 H   0  0  0  0  0  0  0  0  0  0  0  0
    2.5602    1.5612    0.5892 H   0  0  0  0  0  0  0  0  0  0  0  0
    3.3158    0.2505    1.5013 H   0  0  0  0  0  0  0  0  0  0  0  0
    4.7299    1.8518   -3.4519 H   0  0  0  0  0  0  0  0  0  0  0  0
    5.8429    0.2347    0.3294 H   0  0  0  0  0  0  0  0  0  0  0  0
    3.9131   -0.8483   -0.7613 H   0  0  0  0  0  0  0  0  0  0  0  0
   -2.4622   -1.4244    0.9951 H   0  0  0  0  0  0  0  0  0  0  0  0
  1 25  1  0
  2 25  1  0
  3  4  2  0
  3  5  1  0
  4  8  1  0
  5  9  2  0
  6  7  2  0
  6 10  1  0
  7 11  1  0
  8 20  2  0
  9 20  1  0
 10 21  2  0
 11 22  2  0
 12 13  1  0
 12 17  1  0
 13 18  1  0
 14 17  1  0
 14 18  1  0
 15 17  1  0
 15 19  1  0
 16 19  1  0
 16 28  1  0
 18 19  1  0
 20 25  1  0
 21 22  1  0
 21 23  1  0
 22 28  1  0
 23 24  1  0
 23 27  2  0
 24 26  1  0
 24 29  2  0
 25 26  1  0
 27 28  1  0
  1 30  1  0
  1 31  1  0
  1 32  1  0
  2 33  1  0
  2 34  1  0
  2 35  1  0
  3 36  1  0
  4 37  1  0
  5 38  1  0
  6 39  1  0
  7 40  1  0
  8 41  1  0
  9 42  1  0
 10 43  1  0
 11 44  1  0
 12 45  1  0
 12 46  1  0
 13 47  1  0
 13 48  1  0
 14 49  1  0
 14 50  1  0
 15 51  1  0
 15 52  1  0
 16 53  1  0
 16 54  1  0
 17 55  1  0
 18 56  1  0
 19 57  1  0
 26 58  1  0
M  END
