
     RDKit          3D

 64 66  0  0  0  0  0  0  0  0999 V2000
   -4.8866    3.6872   -1.7910 C   0  0  0  0  0  0  0  0  0  0  0  0
    2.1336    0.4606    2.0616 C   0  0  0  0  0  0  0  0  0  0  0  0
    8.4325   -0.2178    1.3651 C   0  0  0  0  0  0  0  0  0  0  0  0
    2.7631   -0.0739   -2.6892 C   0  0  0  0  0  0  0  0  0  0  0  0
   -4.9992    2.2638   -1.2641 C   0  0  0  0  0  0  0  0  0  0  0  0
   -6.8296   -1.6911    1.2445 C   0  0  0  0  0  0  0  0  0  0  0  0
   -6.7272   -1.4104   -0.1162 C   0  0  0  0  0  0  0  0  0  0  0  0
   -5.8432   -1.2449    2.1207 C   0  0  0  0  0  0  0  0  0  0  0  0
   -5.6416   -0.6757   -0.6004 C   0  0  0  0  0  0  0  0  0  0  0  0
   -4.7569   -0.5117    1.6366 C   0  0  0  0  0  0  0  0  0  0  0  0
    6.3987   -0.5083   -0.5865 C   0  0  0  0  0  0  0  0  0  0  0  0
    5.3426   -0.6613   -1.4892 C   0  0  0  0  0  0  0  0  0  0  0  0
   -1.4917   -0.6884   -1.0362 C   0  0  0  0  0  0  0  0  0  0  0  0
   -1.2876    1.0585    0.8172 C   0  0  0  0  0  0  0  0  0  0  0  0
   -0.1042   -1.1692   -0.6043 C   0  0  0  0  0  0  0  0  0  0  0  0
    0.0678    1.1628    0.1241 C   0  0  0  0  0  0  0  0  0  0  0  0
    2.5051   -1.7512    0.8545 C   0  0  0  0  0  0  0  0  0  0  0  0
    4.9315   -1.1630    1.2061 C   0  0  0  0  0  0  0  0  0  0  0  0
    1.4722   -0.6276    1.1980 C   0  0  0  0  0  0  0  0  0  0  0  0
    3.8517   -1.3123    0.3144 C   0  0  0  0  0  0  0  0  0  0  0  0
   -4.6528   -0.2077    0.2726 C   0  0  0  0  0  0  0  0  0  0  0  0
   -2.1878    0.0031    0.1475 C   0  0  0  0  0  0  0  0  0  0  0  0
    6.1964   -0.7574    0.7680 C   0  0  0  0  0  0  0  0  0  0  0  0
    4.0736   -1.0445   -1.0414 C   0  0  0  0  0  0  0  0  0  0  0  0
   -3.6308    1.6067   -1.1009 C   0  0  0  0  0  0  0  0  0  0  0  0
    0.7525   -0.1265   -0.0000 N   0  0  0  0  0  0  0  0  0  0  0  0
   -3.5306    0.5272   -0.2129 N   0  0  0  0  0  0  0  0  0  0  0  0
   -2.6502    2.0665   -1.6917 O   0  0  0  0  0  0  0  0  0  0  0  0
    7.1373   -0.6549    1.7556 O   0  0  0  0  0  0  0  0  0  0  0  0
    3.0565   -1.2502   -1.9347 O   0  0  0  0  0  0  0  0  0  0  0  0
   -4.4457    3.7027   -2.7936 H   0  0  0  0  0  0  0  0  0  0  0  0
   -5.8771    4.1497   -1.8483 H   0  0  0  0  0  0  0  0  0  0  0  0
   -4.2582    4.3002   -1.1366 H   0  0  0  0  0  0  0  0  0  0  0  0
    1.3843    1.1050    2.5336 H   0  0  0  0  0  0  0  0  0  0  0  0
    2.8094    1.0925    1.4755 H   0  0  0  0  0  0  0  0  0  0  0  0
    2.7065    0.0114    2.8804 H   0  0  0  0  0  0  0  0  0  0  0  0
    8.3978    0.7885    0.9343 H   0  0  0  0  0  0  0  0  0  0  0  0
    8.8972   -0.9287    0.6737 H   0  0  0  0  0  0  0  0  0  0  0  0
    9.0551   -0.1740    2.2641 H   0  0  0  0  0  0  0  0  0  0  0  0
    3.4693    0.0388   -3.5179 H   0  0  0  0  0  0  0  0  0  0  0  0
    2.7602    0.8271   -2.0640 H   0  0  0  0  0  0  0  0  0  0  0  0
    1.7639   -0.1914   -3.1189 H   0  0  0  0  0  0  0  0  0  0  0  0
   -5.5157    2.2930   -0.2996 H   0  0  0  0  0  0  0  0  0  0  0  0
   -5.5913    1.6853   -1.9776 H   0  0  0  0  0  0  0  0  0  0  0  0
   -7.6742   -2.2631    1.6208 H   0  0  0  0  0  0  0  0  0  0  0  0
   -7.4863   -1.7734   -0.8045 H   0  0  0  0  0  0  0  0  0  0  0  0
   -5.9205   -1.4638    3.1828 H   0  0  0  0  0  0  0  0  0  0  0  0
   -5.5590   -0.5169   -1.6722 H   0  0  0  0  0  0  0  0  0  0  0  0
   -4.0109   -0.1554    2.3422 H   0  0  0  0  0  0  0  0  0  0  0  0
    7.3646   -0.2086   -0.9772 H   0  0  0  0  0  0  0  0  0  0  0  0
    5.5254   -0.4997   -2.5475 H   0  0  0  0  0  0  0  0  0  0  0  0
   -1.3992   -0.0297   -1.9063 H   0  0  0  0  0  0  0  0  0  0  0  0
   -2.0902   -1.5454   -1.3689 H   0  0  0  0  0  0  0  0  0  0  0  0
   -1.7621    2.0465    0.8372 H   0  0  0  0  0  0  0  0  0  0  0  0
   -1.1408    0.7841    1.8702 H   0  0  0  0  0  0  0  0  0  0  0  0
   -0.2604   -2.0034    0.0922 H   0  0  0  0  0  0  0  0  0  0  0  0
    0.4072   -1.5902   -1.4756 H   0  0  0  0  0  0  0  0  0  0  0  0
   -0.0720    1.5733   -0.8847 H   0  0  0  0  0  0  0  0  0  0  0  0
    0.6882    1.9173    0.6173 H   0  0  0  0  0  0  0  0  0  0  0  0
    2.0720   -2.4923    0.1714 H   0  0  0  0  0  0  0  0  0  0  0  0
    2.6829   -2.3248    1.7764 H   0  0  0  0  0  0  0  0  0  0  0  0
    4.7908   -1.3654    2.2663 H   0  0  0  0  0  0  0  0  0  0  0  0
    0.7202   -1.0910    1.8534 H   0  0  0  0  0  0  0  0  0  0  0  0
   -2.3263   -0.7868    0.8983 H   0  0  0  0  0  0  0  0  0  0  0  0
  1  5  1  0
  2 19  1  0
  3 29  1  0
  4 30  1  0
  5 25  1  0
  6  7  2  0
  6  8  1  0
  7  9  1  0
  8 10  2  0
  9 21  2  0
 10 21  1  0
 11 12  2  0
 11 23  1  0
 12 24  1  0
 13 15  1  0
 13 22  1  0
 14 16  1  0
 14 22  1  0
 15 26  1  0
 16 26  1  0
 17 19  1  0
 17 20  1  0
 18 20  1  0
 18 23  2  0
 19 26  1  0
 20 24  2  0
 21 27  1  0
 22 27  1  0
 23 29  1  0
 24 30  1  0
 25 27  1  0
 25 28  2  0
  1 31  1  0
  1 32  1  0
  1 33  1  0
  2 34  1  0
  2 35  1  0
  2 36  1  0
  3 37  1  0
  3 38  1  0
  3 39  1  0
  4 40  1  0
  4 41  1  0
  4 42  1  0
  5 43  1  0
  5 44  1  0
  6 45  1  0
  7 46  1  0
  8 47  1  0
  9 48  1  0
 10 49  1  0
 11 50  1  0
 12 51  1  0
 13 52  1  0
 13 53  1  0
 14 54  1  0
 14 55  1  0
 15 56  1  0
 15 57  1  0
 16 58  1  0
 16 59  1  0
 17 60  1  0
 17 61  1  0
 18 62  1  0
 19 63  1  0
 22 64  1  0
M  END
