
     RDKit          3D

 65 68  0  0  0  0  0  0  0  0999 V2000
    7.5409    0.1581    2.7580 C   0  0  0  0  0  0  0  0  0  0  0  0
   -5.0655    1.4179    3.7168 C   0  0  0  0  0  0  0  0  0  0  0  0
   -4.1417   -1.7494    0.6429 C   0  0  0  0  0  0  0  0  0  0  0  0
   -5.0063   -1.6746   -1.6791 C   0  0  0  0  0  0  0  0  0  0  0  0
    7.4182   -1.1492    1.9905 C   0  0  0  0  0  0  0  0  0  0  0  0
    6.6521   -1.0144    0.6729 C   0  0  0  0  0  0  0  0  0  0  0  0
    5.1768   -0.6545    0.8634 C   0  0  0  0  0  0  0  0  0  0  0  0
    4.4333   -0.6326   -0.4778 C   0  0  0  0  0  0  0  0  0  0  0  0
   -5.9767    1.0552    1.4296 C   0  0  0  0  0  0  0  0  0  0  0  0
   -5.8791    0.8594   -0.0516 C   0  0  0  0  0  0  0  0  0  0  0  0
    2.9494   -0.2720   -0.2772 C   0  0  0  0  0  0  0  0  0  0  0  0
    2.7338   -1.1276   -4.0740 C   0  0  0  0  0  0  0  0  0  0  0  0
    2.2622    0.3005   -4.2245 C   0  0  0  0  0  0  0  0  0  0  0  0
   -3.5128    1.3358    1.6966 C   0  0  0  0  0  0  0  0  0  0  0  0
    0.3756    1.4498   -0.4944 C   0  0  0  0  0  0  0  0  0  0  0  0
   -0.5076   -0.5986   -1.3407 C   0  0  0  0  0  0  0  0  0  0  0  0
   -4.9190    1.2576    2.2303 C   0  0  0  0  0  0  0  0  0  0  0  0
    0.6149    0.2192   -1.1353 C   0  0  0  0  0  0  0  0  0  0  0  0
   -3.4067    1.3837    0.1557 C   0  0  0  0  0  0  0  0  0  0  0  0
   -4.4676    0.5470   -0.5834 C   0  0  0  0  0  0  0  0  0  0  0  0
   -0.9072    1.8378   -0.0985 C   0  0  0  0  0  0  0  0  0  0  0  0
   -1.7953   -0.2160   -0.9290 C   0  0  0  0  0  0  0  0  0  0  0  0
   -2.0178    1.0100   -0.3004 C   0  0  0  0  0  0  0  0  0  0  0  0
   -4.0857   -0.9555   -0.6686 C   0  0  0  0  0  0  0  0  0  0  0  0
    2.0548   -0.1641   -1.5481 C   0  0  0  0  0  0  0  0  0  0  0  0
   -0.9842    3.0698    0.4899 O   0  0  0  0  0  0  0  0  0  0  0  0
   -2.7673   -1.1289   -1.2256 O   0  0  0  0  0  0  0  0  0  0  0  0
    2.1502   -1.7763   -2.4857 S   0  0  0  0  0  0  0  0  0  0  0  0
    2.7186    1.1423   -2.6978 S   0  0  0  0  0  0  0  0  0  0  0  0
    6.5669    0.5106    3.1092 H   0  0  0  0  0  0  0  0  0  0  0  0
    8.1786    0.0186    3.6370 H   0  0  0  0  0  0  0  0  0  0  0  0
    7.9888    0.9389    2.1354 H   0  0  0  0  0  0  0  0  0  0  0  0
   -4.6934    2.3980    4.0321 H   0  0  0  0  0  0  0  0  0  0  0  0
   -6.1089    1.3373    4.0392 H   0  0  0  0  0  0  0  0  0  0  0  0
   -4.4944    0.6435    4.2391 H   0  0  0  0  0  0  0  0  0  0  0  0
   -3.9308   -2.8099    0.4556 H   0  0  0  0  0  0  0  0  0  0  0  0
   -5.1221   -1.6889    1.1231 H   0  0  0  0  0  0  0  0  0  0  0  0
   -3.3730   -1.4334    1.3505 H   0  0  0  0  0  0  0  0  0  0  0  0
   -5.0098   -1.1542   -2.6439 H   0  0  0  0  0  0  0  0  0  0  0  0
   -6.0373   -1.7582   -1.3244 H   0  0  0  0  0  0  0  0  0  0  0  0
   -4.6409   -2.6884   -1.8851 H   0  0  0  0  0  0  0  0  0  0  0  0
    6.9380   -1.9020    2.6264 H   0  0  0  0  0  0  0  0  0  0  0  0
    8.4267   -1.5184    1.7691 H   0  0  0  0  0  0  0  0  0  0  0  0
    6.7219   -1.9695    0.1375 H   0  0  0  0  0  0  0  0  0  0  0  0
    7.1382   -0.2617    0.0402 H   0  0  0  0  0  0  0  0  0  0  0  0
    5.0894    0.3293    1.3377 H   0  0  0  0  0  0  0  0  0  0  0  0
    4.7043   -1.3833    1.5328 H   0  0  0  0  0  0  0  0  0  0  0  0
    4.9191    0.0938   -1.1378 H   0  0  0  0  0  0  0  0  0  0  0  0
    4.5310   -1.6172   -0.9467 H   0  0  0  0  0  0  0  0  0  0  0  0
   -6.9796    1.0260    1.8519 H   0  0  0  0  0  0  0  0  0  0  0  0
   -6.5925    0.0869   -0.3517 H   0  0  0  0  0  0  0  0  0  0  0  0
   -6.2312    1.7879   -0.5205 H   0  0  0  0  0  0  0  0  0  0  0  0
    2.9164    0.6761    0.2771 H   0  0  0  0  0  0  0  0  0  0  0  0
    2.5054   -1.0141    0.4028 H   0  0  0  0  0  0  0  0  0  0  0  0
    3.8275   -1.1925   -4.1013 H   0  0  0  0  0  0  0  0  0  0  0  0
    2.3486   -1.7518   -4.8861 H   0  0  0  0  0  0  0  0  0  0  0  0
    2.7452    0.7847   -5.0782 H   0  0  0  0  0  0  0  0  0  0  0  0
    1.1786    0.3598   -4.3729 H   0  0  0  0  0  0  0  0  0  0  0  0
   -2.9347    0.5000    2.1069 H   0  0  0  0  0  0  0  0  0  0  0  0
   -3.0420    2.2403    2.1040 H   0  0  0  0  0  0  0  0  0  0  0  0
    1.1956    2.1414   -0.3050 H   0  0  0  0  0  0  0  0  0  0  0  0
   -0.4199   -1.5705   -1.8204 H   0  0  0  0  0  0  0  0  0  0  0  0
   -3.5944    2.4226   -0.1536 H   0  0  0  0  0  0  0  0  0  0  0  0
   -4.4523    0.9051   -1.6263 H   0  0  0  0  0  0  0  0  0  0  0  0
   -1.9032    3.3761    0.4915 H   0  0  0  0  0  0  0  0  0  0  0  0
  1  5  1  0
  2 17  1  0
  3 24  1  0
  4 24  1  0
  5  6  1  0
  6  7  1  0
  7  8  1  0
  8 11  1  0
  9 10  1  0
  9 17  2  0
 10 20  1  0
 11 25  1  0
 12 13  1  0
 12 28  1  0
 13 29  1  0
 14 17  1  0
 14 19  1  0
 15 18  2  0
 15 21  1  0
 16 18  1  0
 16 22  2  0
 18 25  1  0
 19 20  1  0
 19 23  1  0
 20 24  1  0
 21 23  2  0
 21 26  1  0
 22 23  1  0
 22 27  1  0
 24 27  1  0
 25 28  1  0
 25 29  1  0
  1 30  1  0
  1 31  1  0
  1 32  1  0
  2 33  1  0
  2 34  1  0
  2 35  1  0
  3 36  1  0
  3 37  1  0
  3 38  1  0
  4 39  1  0
  4 40  1  0
  4 41  1  0
  5 42  1  0
  5 43  1  0
  6 44  1  0
  6 45  1  0
  7 46  1  0
  7 47  1  0
  8 48  1  0
  8 49  1  0
  9 50  1  0
 10 51  1  0
 10 52  1  0
 11 53  1  0
 11 54  1  0
 12 55  1  0
 12 56  1  0
 13 57  1  0
 13 58  1  0
 14 59  1  0
 14 60  1  0
 15 61  1  0
 16 62  1  0
 19 63  1  0
 20 64  1  0
 26 65  1  0
M  END
