
     RDKit          3D

 47 51  0  0  0  0  0  0  0  0999 V2000
   -5.0438   -1.4609   -1.0631 C   0  0  0  0  0  0  0  0  0  0  0  0
   -4.3455   -0.3785   -1.5826 C   0  0  0  0  0  0  0  0  0  0  0  0
    1.6399    4.4668   -1.1928 C   0  0  0  0  0  0  0  0  0  0  0  0
    2.5933    3.7412   -1.8967 C   0  0  0  0  0  0  0  0  0  0  0  0
   -2.8715   -0.8689    3.2635 C   0  0  0  0  0  0  0  0  0  0  0  0
   -4.8427   -1.8453    0.2622 C   0  0  0  0  0  0  0  0  0  0  0  0
   -3.7562   -1.5475    2.4250 C   0  0  0  0  0  0  0  0  0  0  0  0
   -3.4407    0.3167   -0.7784 C   0  0  0  0  0  0  0  0  0  0  0  0
    0.6324    3.8085   -0.4817 C   0  0  0  0  0  0  0  0  0  0  0  0
   -2.1430    0.2066    2.7712 C   0  0  0  0  0  0  0  0  0  0  0  0
    2.5672    2.3438   -1.9087 C   0  0  0  0  0  0  0  0  0  0  0  0
    2.5418   -2.7960   -0.1790 C   0  0  0  0  0  0  0  0  0  0  0  0
    3.9645   -0.8483    0.0317 C   0  0  0  0  0  0  0  0  0  0  0  0
    3.3143   -3.4604    0.7753 C   0  0  0  0  0  0  0  0  0  0  0  0
    4.7342   -1.5152    0.9862 C   0  0  0  0  0  0  0  0  0  0  0  0
    2.0220   -0.7653   -1.5947 C   0  0  0  0  0  0  0  0  0  0  0  0
    0.1614    0.1939   -0.2306 C   0  0  0  0  0  0  0  0  0  0  0  0
    2.8586   -1.4815   -0.5610 C   0  0  0  0  0  0  0  0  0  0  0  0
   -3.9376   -1.1566    1.0864 C   0  0  0  0  0  0  0  0  0  0  0  0
    4.4025   -2.8143    1.3485 C   0  0  0  0  0  0  0  0  0  0  0  0
   -3.2089   -0.0591    0.5667 C   0  0  0  0  0  0  0  0  0  0  0  0
    0.5780    2.3970   -0.4748 C   0  0  0  0  0  0  0  0  0  0  0  0
   -2.2987    0.5963    1.4341 C   0  0  0  0  0  0  0  0  0  0  0  0
   -0.3062    1.4447    0.1335 C   0  0  0  0  0  0  0  0  0  0  0  0
    1.5512    1.6889   -1.1905 C   0  0  0  0  0  0  0  0  0  0  0  0
   -1.4676    1.7300    0.9764 C   0  0  0  0  0  0  0  0  0  0  0  0
    5.1417   -3.4539    2.2642 F   0  0  0  0  0  0  0  0  0  0  0  0
    1.2788    0.3482   -1.0140 N   0  0  0  0  0  0  0  0  0  0  0  0
   -1.7771    2.8587    1.3483 O   0  0  0  0  0  0  0  0  0  0  0  0
   -5.7519   -2.0022   -1.6852 H   0  0  0  0  0  0  0  0  0  0  0  0
   -4.5064   -0.0676   -2.6118 H   0  0  0  0  0  0  0  0  0  0  0  0
    1.6737    5.5533   -1.1915 H   0  0  0  0  0  0  0  0  0  0  0  0
    3.3712    4.2677   -2.4448 H   0  0  0  0  0  0  0  0  0  0  0  0
   -2.7547   -1.1794    4.2988 H   0  0  0  0  0  0  0  0  0  0  0  0
   -5.4077   -2.6901    0.6513 H   0  0  0  0  0  0  0  0  0  0  0  0
   -4.3178   -2.3871    2.8313 H   0  0  0  0  0  0  0  0  0  0  0  0
   -2.9213    1.1678   -1.2161 H   0  0  0  0  0  0  0  0  0  0  0  0
   -0.1086    4.3858    0.0665 H   0  0  0  0  0  0  0  0  0  0  0  0
   -1.4539    0.7408    3.4218 H   0  0  0  0  0  0  0  0  0  0  0  0
    3.3223    1.7948   -2.4614 H   0  0  0  0  0  0  0  0  0  0  0  0
    1.6896   -3.3108   -0.6182 H   0  0  0  0  0  0  0  0  0  0  0  0
    4.2276    0.1727   -0.2386 H   0  0  0  0  0  0  0  0  0  0  0  0
    3.0739   -4.4751    1.0764 H   0  0  0  0  0  0  0  0  0  0  0  0
    5.5857   -1.0282    1.4507 H   0  0  0  0  0  0  0  0  0  0  0  0
    2.6557   -0.3974   -2.4074 H   0  0  0  0  0  0  0  0  0  0  0  0
    1.2824   -1.4372   -2.0469 H   0  0  0  0  0  0  0  0  0  0  0  0
   -0.2022   -0.7973    0.0112 H   0  0  0  0  0  0  0  0  0  0  0  0
  1  2  2  0
  1  6  1  0
  2  8  1  0
  3  4  2  0
  3  9  1  0
  4 11  1  0
  5  7  2  0
  5 10  1  0
  6 19  2  0
  7 19  1  0
  8 21  2  0
  9 22  2  0
 10 23  2  0
 11 25  2  0
 12 14  2  0
 12 18  1  0
 13 15  1  0
 13 18  2  0
 14 20  1  0
 15 20  2  0
 16 18  1  0
 16 28  1  0
 17 24  2  0
 17 28  1  0
 19 21  1  0
 20 27  1  0
 21 23  1  0
 22 24  1  0
 22 25  1  0
 23 26  1  0
 24 26  1  0
 25 28  1  0
 26 29  2  0
  1 30  1  0
  2 31  1  0
  3 32  1  0
  4 33  1  0
  5 34  1  0
  6 35  1  0
  7 36  1  0
  8 37  1  0
  9 38  1  0
 10 39  1  0
 11 40  1  0
 12 41  1  0
 13 42  1  0
 14 43  1  0
 15 44  1  0
 16 45  1  0
 16 46  1  0
 17 47  1  0
M  END
