
     RDKit          3D

 60 63  0  0  0  0  0  0  0  0999 V2000
   -1.0104    1.0789    1.0163 C   0  0  0  0  0  0  0  0  0  0  0  0
    8.2205    0.9959    1.6197 C   0  0  0  0  0  0  0  0  0  0  0  0
    6.8301    0.6897    1.2507 C   0  0  0  0  0  0  0  0  0  0  0  0
    8.8517    2.0159    0.6765 C   0  0  0  0  0  0  0  0  0  0  0  0
    5.6917    0.4573    0.9461 C   0  0  0  0  0  0  0  0  0  0  0  0
    3.8130   -1.0904    0.6764 C   0  0  0  0  0  0  0  0  0  0  0  0
    3.5255    1.2426    0.1242 C   0  0  0  0  0  0  0  0  0  0  0  0
    2.4853   -1.3395    0.3152 C   0  0  0  0  0  0  0  0  0  0  0  0
    2.1984    0.9927   -0.2372 C   0  0  0  0  0  0  0  0  0  0  0  0
    1.0092   -4.6053   -3.1433 C   0  0  0  0  0  0  0  0  0  0  0  0
    0.2717   -3.7264   -2.3486 C   0  0  0  0  0  0  0  0  0  0  0  0
    8.2836    3.3578    0.8650 C   0  0  0  0  0  0  0  0  0  0  0  0
   -5.7092    0.1671    1.9210 C   0  0  0  0  0  0  0  0  0  0  0  0
   -5.9022    1.5118   -0.1459 C   0  0  0  0  0  0  0  0  0  0  0  0
   -7.1492    0.5621    2.1743 C   0  0  0  0  0  0  0  0  0  0  0  0
   -6.0909    2.7133    0.7572 C   0  0  0  0  0  0  0  0  0  0  0  0
    2.3561   -2.7569   -3.9253 C   0  0  0  0  0  0  0  0  0  0  0  0
   -0.8893   -0.0152    0.0137 C   0  0  0  0  0  0  0  0  0  0  0  0
    4.3339    0.2003    0.5786 C   0  0  0  0  0  0  0  0  0  0  0  0
    1.6685   -0.3022   -0.1563 C   0  0  0  0  0  0  0  0  0  0  0  0
    2.0579   -4.1178   -3.9165 C   0  0  0  0  0  0  0  0  0  0  0  0
    1.6173   -1.8674   -3.1340 C   0  0  0  0  0  0  0  0  0  0  0  0
    0.5982   -2.3569   -2.3057 C   0  0  0  0  0  0  0  0  0  0  0  0
   -1.9614   -0.7818   -0.5387 C   0  0  0  0  0  0  0  0  0  0  0  0
    0.2722   -0.5620   -0.5260 C   0  0  0  0  0  0  0  0  0  0  0  0
   -3.3984   -0.6288   -0.3092 C   0  0  0  0  0  0  0  0  0  0  0  0
    2.9711   -5.1986   -4.8946 Cl  0  0  0  0  0  0  0  0  0  0  0  0
    1.9092   -0.1866   -3.4124 Cl  0  0  0  0  0  0  0  0  0  0  0  0
    7.8488    4.4232    1.0151 N   0  0  0  0  0  0  0  0  0  0  0  0
   -1.4853   -1.7649   -1.3174 N   0  0  0  0  0  0  0  0  0  0  0  0
   -3.8885    0.3434    0.4002 N   0  0  0  0  0  0  0  0  0  0  0  0
   -5.2548    0.3532    0.5183 N   0  0  0  0  0  0  0  0  0  0  0  0
   -0.1565   -1.5359   -1.4244 N   0  0  0  0  0  0  0  0  0  0  0  0
   -4.2170   -1.5456   -0.8756 O   0  0  0  0  0  0  0  0  0  0  0  0
   -8.6224    2.5776    1.4117 O   0  0  0  0  0  0  0  0  0  0  0  0
   -6.9150    2.9481    3.2322 O   0  0  0  0  0  0  0  0  0  0  0  0
   -7.3150    2.3228    1.9865 S   0  0  0  0  0  6  0  0  0  0  0  0
   -0.0435    1.3651    1.4385 H   0  0  0  0  0  0  0  0  0  0  0  0
   -1.4534    1.9677    0.5559 H   0  0  0  0  0  0  0  0  0  0  0  0
   -1.6407    0.7663    1.8551 H   0  0  0  0  0  0  0  0  0  0  0  0
    8.2595    1.3539    2.6556 H   0  0  0  0  0  0  0  0  0  0  0  0
    8.8059    0.0694    1.5807 H   0  0  0  0  0  0  0  0  0  0  0  0
    8.7287    1.7033   -0.3673 H   0  0  0  0  0  0  0  0  0  0  0  0
    9.9296    2.0594    0.8721 H   0  0  0  0  0  0  0  0  0  0  0  0
    4.4321   -1.9074    1.0389 H   0  0  0  0  0  0  0  0  0  0  0  0
    3.9204    2.2533    0.0464 H   0  0  0  0  0  0  0  0  0  0  0  0
    2.0955   -2.3498    0.4180 H   0  0  0  0  0  0  0  0  0  0  0  0
    1.5869    1.8162   -0.5998 H   0  0  0  0  0  0  0  0  0  0  0  0
    0.7592   -5.6633   -3.1525 H   0  0  0  0  0  0  0  0  0  0  0  0
   -0.5427   -4.1222   -1.7417 H   0  0  0  0  0  0  0  0  0  0  0  0
   -5.5812   -0.8921    2.1732 H   0  0  0  0  0  0  0  0  0  0  0  0
   -5.0542    0.7331    2.5974 H   0  0  0  0  0  0  0  0  0  0  0  0
   -5.3085    1.8036   -1.0216 H   0  0  0  0  0  0  0  0  0  0  0  0
   -6.8687    1.1802   -0.5461 H   0  0  0  0  0  0  0  0  0  0  0  0
   -7.4570    0.3103    3.1935 H   0  0  0  0  0  0  0  0  0  0  0  0
   -7.8308    0.0706    1.4731 H   0  0  0  0  0  0  0  0  0  0  0  0
   -5.1615    2.9902    1.2644 H   0  0  0  0  0  0  0  0  0  0  0  0
   -6.4550    3.5788    0.1958 H   0  0  0  0  0  0  0  0  0  0  0  0
    3.1440   -2.3830   -4.5751 H   0  0  0  0  0  0  0  0  0  0  0  0
   -5.1133   -1.2751   -0.6214 H   0  0  0  0  0  0  0  0  0  0  0  0
  1 18  1  0
  2  3  1  0
  2  4  1  0
  3  5  3  0
  4 12  1  0
  5 19  1  0
  6  8  2  0
  6 19  1  0
  7  9  1  0
  7 19  2  0
  8 20  1  0
  9 20  2  0
 10 11  2  0
 10 21  1  0
 11 23  1  0
 12 29  3  0
 13 15  1  0
 13 32  1  0
 14 16  1  0
 14 32  1  0
 15 37  1  0
 16 37  1  0
 17 21  2  0
 17 22  1  0
 18 24  1  0
 18 25  2  0
 20 25  1  0
 21 27  1  0
 22 23  2  0
 22 28  1  0
 23 33  1  0
 24 26  1  0
 24 30  2  0
 25 33  1  0
 26 31  2  3
 26 34  1  0
 30 33  1  0
 31 32  1  0
 35 37  2  0
 36 37  2  0
  1 38  1  0
  1 39  1  0
  1 40  1  0
  2 41  1  0
  2 42  1  0
  4 43  1  0
  4 44  1  0
  6 45  1  0
  7 46  1  0
  8 47  1  0
  9 48  1  0
 10 49  1  0
 11 50  1  0
 13 51  1  0
 13 52  1  0
 14 53  1  0
 14 54  1  0
 15 55  1  0
 15 56  1  0
 16 57  1  0
 16 58  1  0
 17 59  1  0
 34 60  1  0
M  END
