
     RDKit          3D

 62 64  0  0  0  0  0  0  0  0999 V2000
   -8.0250    0.3461    1.1561 C   0  0  0  0  0  0  0  0  0  0  0  0
   -1.6212    1.0143   -3.3560 C   0  0  0  0  0  0  0  0  0  0  0  0
   -2.7065   -0.7016   -1.9698 C   0  0  0  0  0  0  0  0  0  0  0  0
   -7.0973   -0.8355    0.9210 C   0  0  0  0  0  0  0  0  0  0  0  0
   -5.6670   -0.5964    1.4105 C   0  0  0  0  0  0  0  0  0  0  0  0
   -4.9355    0.4972    0.6284 C   0  0  0  0  0  0  0  0  0  0  0  0
   -3.4742    0.6059    1.0676 C   0  0  0  0  0  0  0  0  0  0  0  0
    7.8460    0.7964    1.5725 C   0  0  0  0  0  0  0  0  0  0  0  0
    8.4465    0.5582    0.3395 C   0  0  0  0  0  0  0  0  0  0  0  0
   -2.7057    1.7290    0.3725 C   0  0  0  0  0  0  0  0  0  0  0  0
    6.7611    0.0183    1.9831 C   0  0  0  0  0  0  0  0  0  0  0  0
    7.9620   -0.4576   -0.4814 C   0  0  0  0  0  0  0  0  0  0  0  0
   -2.6326    1.7185   -1.1646 C   0  0  0  0  0  0  0  0  0  0  0  0
    5.0689   -1.8148    1.6470 C   0  0  0  0  0  0  0  0  0  0  0  0
    3.4208   -0.2522    0.5274 C   0  0  0  0  0  0  0  0  0  0  0  0
    0.4669    1.4193   -1.1554 C   0  0  0  0  0  0  0  0  0  0  0  0
   -0.0576   -0.8855   -0.7190 C   0  0  0  0  0  0  0  0  0  0  0  0
    6.2601   -1.0124    1.1665 C   0  0  0  0  0  0  0  0  0  0  0  0
    3.7439   -1.4642    1.0086 C   0  0  0  0  0  0  0  0  0  0  0  0
   -0.4572    0.3551   -1.2391 C   0  0  0  0  0  0  0  0  0  0  0  0
    2.1192    0.0032   -0.0734 C   0  0  0  0  0  0  0  0  0  0  0  0
    6.8798   -1.2357   -0.0712 C   0  0  0  0  0  0  0  0  0  0  0  0
    1.7323    1.2422   -0.5820 C   0  0  0  0  0  0  0  0  0  0  0  0
    1.2098   -1.0406   -0.1494 C   0  0  0  0  0  0  0  0  0  0  0  0
    2.7684   -2.5829    0.9253 C   0  0  0  0  0  0  0  0  0  0  0  0
   -1.8392    0.5765   -1.8797 C   0  0  0  0  0  0  0  0  0  0  0  0
    6.4832   -2.2036   -0.9506 O   0  0  0  0  0  0  0  0  0  0  0  0
    2.6029    2.2966   -0.5155 O   0  0  0  0  0  0  0  0  0  0  0  0
    3.0457   -3.7045    1.3358 O   0  0  0  0  0  0  0  0  0  0  0  0
    1.5349   -2.3165    0.3465 O   0  0  0  0  0  0  0  0  0  0  0  0
   -9.0480    0.0847    0.8657 H   0  0  0  0  0  0  0  0  0  0  0  0
   -7.7260    1.2161    0.5636 H   0  0  0  0  0  0  0  0  0  0  0  0
   -8.0362    0.6318    2.2127 H   0  0  0  0  0  0  0  0  0  0  0  0
   -2.5789    1.1434   -3.8746 H   0  0  0  0  0  0  0  0  0  0  0  0
   -1.0855    1.9665   -3.4350 H   0  0  0  0  0  0  0  0  0  0  0  0
   -1.0396    0.2674   -3.9101 H   0  0  0  0  0  0  0  0  0  0  0  0
   -2.2265   -1.4630   -2.5967 H   0  0  0  0  0  0  0  0  0  0  0  0
   -2.8941   -1.1625   -0.9988 H   0  0  0  0  0  0  0  0  0  0  0  0
   -3.6815   -0.4866   -2.4221 H   0  0  0  0  0  0  0  0  0  0  0  0
   -7.5042   -1.7074    1.4473 H   0  0  0  0  0  0  0  0  0  0  0  0
   -7.0888   -1.0854   -0.1466 H   0  0  0  0  0  0  0  0  0  0  0  0
   -5.1112   -1.5369    1.3154 H   0  0  0  0  0  0  0  0  0  0  0  0
   -5.6804   -0.3439    2.4772 H   0  0  0  0  0  0  0  0  0  0  0  0
   -4.9957    0.2721   -0.4409 H   0  0  0  0  0  0  0  0  0  0  0  0
   -5.4288    1.4630    0.7849 H   0  0  0  0  0  0  0  0  0  0  0  0
   -2.9558   -0.3475    0.9332 H   0  0  0  0  0  0  0  0  0  0  0  0
   -3.4489    0.8038    2.1472 H   0  0  0  0  0  0  0  0  0  0  0  0
    8.2209    1.5896    2.2143 H   0  0  0  0  0  0  0  0  0  0  0  0
    9.2901    1.1617    0.0152 H   0  0  0  0  0  0  0  0  0  0  0  0
   -3.1724    2.6789    0.6660 H   0  0  0  0  0  0  0  0  0  0  0  0
   -1.6944    1.7657    0.7915 H   0  0  0  0  0  0  0  0  0  0  0  0
    6.3044    0.2270    2.9484 H   0  0  0  0  0  0  0  0  0  0  0  0
    8.4275   -0.6458   -1.4452 H   0  0  0  0  0  0  0  0  0  0  0  0
   -3.6492    1.7691   -1.5760 H   0  0  0  0  0  0  0  0  0  0  0  0
   -2.1765    2.6791   -1.4441 H   0  0  0  0  0  0  0  0  0  0  0  0
    5.3171   -2.8726    1.4936 H   0  0  0  0  0  0  0  0  0  0  0  0
    4.9634   -1.7059    2.7346 H   0  0  0  0  0  0  0  0  0  0  0  0
    4.1150    0.5827    0.5673 H   0  0  0  0  0  0  0  0  0  0  0  0
    0.1909    2.3986   -1.5375 H   0  0  0  0  0  0  0  0  0  0  0  0
   -0.7097   -1.7538   -0.7436 H   0  0  0  0  0  0  0  0  0  0  0  0
    5.7609   -2.7271   -0.5712 H   0  0  0  0  0  0  0  0  0  0  0  0
    2.2087    3.0644   -0.9615 H   0  0  0  0  0  0  0  0  0  0  0  0
  1  4  1  0
  2 26  1  0
  3 26  1  0
  4  5  1  0
  5  6  1  0
  6  7  1  0
  7 10  1  0
  8  9  2  0
  8 11  1  0
  9 12  1  0
 10 13  1  0
 11 18  2  0
 12 22  2  0
 13 26  1  0
 14 18  1  0
 14 19  1  0
 15 19  2  0
 15 21  1  0
 16 20  2  0
 16 23  1  0
 17 20  1  0
 17 24  2  0
 18 22  1  0
 19 25  1  0
 20 26  1  0
 21 23  2  0
 21 24  1  0
 22 27  1  0
 23 28  1  0
 24 30  1  0
 25 29  2  0
 25 30  1  0
  1 31  1  0
  1 32  1  0
  1 33  1  0
  2 34  1  0
  2 35  1  0
  2 36  1  0
  3 37  1  0
  3 38  1  0
  3 39  1  0
  4 40  1  0
  4 41  1  0
  5 42  1  0
  5 43  1  0
  6 44  1  0
  6 45  1  0
  7 46  1  0
  7 47  1  0
  8 48  1  0
  9 49  1  0
 10 50  1  0
 10 51  1  0
 11 52  1  0
 12 53  1  0
 13 54  1  0
 13 55  1  0
 14 56  1  0
 14 57  1  0
 15 58  1  0
 16 59  1  0
 17 60  1  0
 27 61  1  0
 28 62  1  0
M  END
