
     RDKit          3D

 66 66  0  0  0  0  0  0  0  0999 V2000
   -5.9771   -1.5851   -3.9344 C   0  0  0  0  0  0  0  0  0  0  0  0
   -5.8994   -0.3916   -2.9906 C   0  0  0  0  0  0  0  0  0  0  0  0
   -6.8325   -0.5660   -1.7920 C   0  0  0  0  0  0  0  0  0  0  0  0
   -6.9027    0.6727   -0.8901 C   0  0  0  0  0  0  0  0  0  0  0  0
   -5.5865    1.0662   -0.2080 C   0  0  0  0  0  0  0  0  0  0  0  0
   -5.0718    0.0111    0.7298 C   0  0  0  0  0  0  0  0  0  0  0  0
   -3.8414   -0.5224    0.6552 C   0  0  0  0  0  0  0  0  0  0  0  0
   -3.3193   -1.5717    1.5941 C   0  0  0  0  0  0  0  0  0  0  0  0
   -2.1972   -1.0312    2.4320 C   0  0  0  0  0  0  0  0  0  0  0  0
   -0.9293   -1.4788    2.3834 C   0  0  0  0  0  0  0  0  0  0  0  0
    0.2536   -0.9746    3.1694 C   0  0  0  0  0  0  0  0  0  0  0  0
   -0.0574    0.0741    4.1981 C   0  0  0  0  0  0  0  0  0  0  0  0
    0.1288    1.4044    4.1382 C   0  0  0  0  0  0  0  0  0  0  0  0
    0.6366    2.2928    3.0344 C   0  0  0  0  0  0  0  0  0  0  0  0
    0.3559    1.8265    1.6370 C   0  0  0  0  0  0  0  0  0  0  0  0
    1.3082    1.6110    0.7137 C   0  0  0  0  0  0  0  0  0  0  0  0
    1.0282    1.1647   -0.6932 C   0  0  0  0  0  0  0  0  0  0  0  0
    1.2527   -0.3357   -0.9235 C   0  0  0  0  0  0  0  0  0  0  0  0
    2.6266   -0.8609   -0.5026 C   0  0  0  0  0  0  0  0  0  0  0  0
    6.5228    0.5562   -2.3173 C   0  0  0  0  0  0  0  0  0  0  0  0
    7.3784   -0.6507   -0.4146 C   0  0  0  0  0  0  0  0  0  0  0  0
    7.8306    0.8799   -2.6988 C   0  0  0  0  0  0  0  0  0  0  0  0
    8.6839   -0.3295   -0.7933 C   0  0  0  0  0  0  0  0  0  0  0  0
    6.2853   -0.2129   -1.1755 C   0  0  0  0  0  0  0  0  0  0  0  0
    8.8996    0.4308   -1.9341 C   0  0  0  0  0  0  0  0  0  0  0  0
    3.7802   -0.2910   -1.3147 C   0  0  0  0  0  0  0  0  0  0  0  0
    5.0013   -0.5819   -0.7255 N   0  0  0  0  0  0  0  0  0  0  0  0
   10.1873    0.7192   -2.2725 O   0  0  0  0  0  0  0  0  0  0  0  0
    3.6035    0.3165   -2.3629 O   0  0  0  0  0  0  0  0  0  0  0  0
   -6.9934   -1.7115   -4.3251 H   0  0  0  0  0  0  0  0  0  0  0  0
   -5.6864   -2.5092   -3.4233 H   0  0  0  0  0  0  0  0  0  0  0  0
   -5.3027   -1.4416   -4.7846 H   0  0  0  0  0  0  0  0  0  0  0  0
   -4.8623   -0.2766   -2.6535 H   0  0  0  0  0  0  0  0  0  0  0  0
   -6.1674    0.5188   -3.5396 H   0  0  0  0  0  0  0  0  0  0  0  0
   -6.5282   -1.4420   -1.2075 H   0  0  0  0  0  0  0  0  0  0  0  0
   -7.8472   -0.7749   -2.1550 H   0  0  0  0  0  0  0  0  0  0  0  0
   -7.6676    0.4946   -0.1215 H   0  0  0  0  0  0  0  0  0  0  0  0
   -7.2577    1.5252   -1.4833 H   0  0  0  0  0  0  0  0  0  0  0  0
   -5.7608    1.9770    0.3788 H   0  0  0  0  0  0  0  0  0  0  0  0
   -4.8336    1.3277   -0.9613 H   0  0  0  0  0  0  0  0  0  0  0  0
   -5.7510   -0.3084    1.5185 H   0  0  0  0  0  0  0  0  0  0  0  0
   -3.1570   -0.1958   -0.1262 H   0  0  0  0  0  0  0  0  0  0  0  0
   -2.9910   -2.4353    1.0031 H   0  0  0  0  0  0  0  0  0  0  0  0
   -4.1112   -1.9315    2.2617 H   0  0  0  0  0  0  0  0  0  0  0  0
   -2.4654   -0.2201    3.1054 H   0  0  0  0  0  0  0  0  0  0  0  0
   -0.6910   -2.2846    1.6911 H   0  0  0  0  0  0  0  0  0  0  0  0
    0.6952   -1.8300    3.6955 H   0  0  0  0  0  0  0  0  0  0  0  0
    1.0287   -0.6351    2.4772 H   0  0  0  0  0  0  0  0  0  0  0  0
   -0.4645   -0.3274    5.1261 H   0  0  0  0  0  0  0  0  0  0  0  0
   -0.1265    1.9615    5.0408 H   0  0  0  0  0  0  0  0  0  0  0  0
    0.1442    3.2685    3.1435 H   0  0  0  0  0  0  0  0  0  0  0  0
    1.7077    2.4727    3.1942 H   0  0  0  0  0  0  0  0  0  0  0  0
   -0.6903    1.6743    1.3793 H   0  0  0  0  0  0  0  0  0  0  0  0
    2.3523    1.7778    0.9706 H   0  0  0  0  0  0  0  0  0  0  0  0
   -0.0077    1.4050   -0.9650 H   0  0  0  0  0  0  0  0  0  0  0  0
    1.6566    1.7531   -1.3713 H   0  0  0  0  0  0  0  0  0  0  0  0
    0.4883   -0.8965   -0.3717 H   0  0  0  0  0  0  0  0  0  0  0  0
    1.0844   -0.5521   -1.9860 H   0  0  0  0  0  0  0  0  0  0  0  0
    2.8005   -0.6655    0.5624 H   0  0  0  0  0  0  0  0  0  0  0  0
    2.6440   -1.9502   -0.6403 H   0  0  0  0  0  0  0  0  0  0  0  0
    5.7101    0.9251   -2.9355 H   0  0  0  0  0  0  0  0  0  0  0  0
    7.2340   -1.2478    0.4821 H   0  0  0  0  0  0  0  0  0  0  0  0
    7.9850    1.4767   -3.5930 H   0  0  0  0  0  0  0  0  0  0  0  0
    9.5268   -0.6744   -0.2017 H   0  0  0  0  0  0  0  0  0  0  0  0
    4.9757   -1.1326    0.1226 H   0  0  0  0  0  0  0  0  0  0  0  0
   10.1809    1.2428   -3.0906 H   0  0  0  0  0  0  0  0  0  0  0  0
  1  2  1  0
  2  3  1  0
  3  4  1  0
  4  5  1  0
  5  6  1  0
  6  7  2  3
  7  8  1  0
  8  9  1  0
  9 10  2  3
 10 11  1  0
 11 12  1  0
 12 13  2  3
 13 14  1  0
 14 15  1  0
 15 16  2  3
 16 17  1  0
 17 18  1  0
 18 19  1  0
 19 26  1  0
 20 22  2  0
 20 24  1  0
 21 23  1  0
 21 24  2  0
 22 25  1  0
 23 25  2  0
 24 27  1  0
 25 28  1  0
 26 27  1  0
 26 29  2  0
  1 30  1  0
  1 31  1  0
  1 32  1  0
  2 33  1  0
  2 34  1  0
  3 35  1  0
  3 36  1  0
  4 37  1  0
  4 38  1  0
  5 39  1  0
  5 40  1  0
  6 41  1  0
  7 42  1  0
  8 43  1  0
  8 44  1  0
  9 45  1  0
 10 46  1  0
 11 47  1  0
 11 48  1  0
 12 49  1  0
 13 50  1  0
 14 51  1  0
 14 52  1  0
 15 53  1  0
 16 54  1  0
 17 55  1  0
 17 56  1  0
 18 57  1  0
 18 58  1  0
 19 59  1  0
 19 60  1  0
 20 61  1  0
 21 62  1  0
 22 63  1  0
 23 64  1  0
 27 65  1  0
 28 66  1  0
M  END
