
     RDKit          3D

 70 73  0  0  0  0  0  0  0  0999 V2000
   -3.3213    3.8173    1.9578 C   0  0  0  0  0  0  0  0  0  0  0  0
   -6.4642   -0.1906   -3.7379 C   0  0  0  0  0  0  0  0  0  0  0  0
   -3.2858    2.6198    2.8973 C   0  0  0  0  0  0  0  0  0  0  0  0
    8.3454   -0.8992   -0.5645 C   0  0  0  0  0  0  0  0  0  0  0  0
    7.7555   -0.9464    0.8438 C   0  0  0  0  0  0  0  0  0  0  0  0
   -0.1388    1.7220    0.1682 C   0  0  0  0  0  0  0  0  0  0  0  0
    1.1693    1.2396   -0.4660 C   0  0  0  0  0  0  0  0  0  0  0  0
   -6.8446   -3.1856   -0.7899 C   0  0  0  0  0  0  0  0  0  0  0  0
   -6.7409   -2.2101   -1.7832 C   0  0  0  0  0  0  0  0  0  0  0  0
   -6.0065   -3.1404    0.3198 C   0  0  0  0  0  0  0  0  0  0  0  0
    7.1940   -1.2148   -1.5147 C   0  0  0  0  0  0  0  0  0  0  0  0
    6.2699   -1.2577    0.6737 C   0  0  0  0  0  0  0  0  0  0  0  0
   -2.1941    1.6021    2.5333 C   0  0  0  0  0  0  0  0  0  0  0  0
   -1.0251    0.5671    0.6623 C   0  0  0  0  0  0  0  0  0  0  0  0
    2.1414    0.6330    0.5515 C   0  0  0  0  0  0  0  0  0  0  0  0
   -3.9586   -0.0047   -0.3848 C   0  0  0  0  0  0  0  0  0  0  0  0
    5.6888    0.7084   -0.8552 C   0  0  0  0  0  0  0  0  0  0  0  0
    4.6913   -1.4931   -1.3216 C   0  0  0  0  0  0  0  0  0  0  0  0
   -3.1026   -1.3658    1.5084 C   0  0  0  0  0  0  0  0  0  0  0  0
   -3.4167    0.0701    1.0550 C   0  0  0  0  0  0  0  0  0  0  0  0
   -4.9667   -1.1196   -0.5349 C   0  0  0  0  0  0  0  0  0  0  0  0
   -5.8055   -1.1764   -1.6658 C   0  0  0  0  0  0  0  0  0  0  0  0
   -5.0611   -2.1234    0.4396 C   0  0  0  0  0  0  0  0  0  0  0  0
    4.4093    1.1496   -0.1798 C   0  0  0  0  0  0  0  0  0  0  0  0
    3.4174   -1.0745   -0.6255 C   0  0  0  0  0  0  0  0  0  0  0  0
    5.9237   -0.8007   -0.7541 C   0  0  0  0  0  0  0  0  0  0  0  0
   -2.3175    1.0677    1.1631 N   0  0  0  0  0  0  0  0  0  0  0  0
    3.3874    0.2086   -0.0848 N   0  0  0  0  0  0  0  0  0  0  0  0
    4.2938    2.3130    0.2083 O   0  0  0  0  0  0  0  0  0  0  0  0
    2.4495   -1.8365   -0.6073 O   0  0  0  0  0  0  0  0  0  0  0  0
   -5.6273   -0.1786   -2.5893 O   0  0  0  0  0  0  0  0  0  0  0  0
   -4.2857   -2.1719    1.5683 O   0  0  0  0  0  0  0  0  0  0  0  0
   -4.0615    4.5453    2.3048 H   0  0  0  0  0  0  0  0  0  0  0  0
   -2.3475    4.3161    1.9210 H   0  0  0  0  0  0  0  0  0  0  0  0
   -3.5962    3.5204    0.9410 H   0  0  0  0  0  0  0  0  0  0  0  0
   -7.5177   -0.0803   -3.4604 H   0  0  0  0  0  0  0  0  0  0  0  0
   -6.1925    0.6692   -4.3579 H   0  0  0  0  0  0  0  0  0  0  0  0
   -6.3029   -1.0944   -4.3346 H   0  0  0  0  0  0  0  0  0  0  0  0
   -4.2739    2.1492    2.9233 H   0  0  0  0  0  0  0  0  0  0  0  0
   -3.0928    2.9810    3.9150 H   0  0  0  0  0  0  0  0  0  0  0  0
    8.7477    0.1000   -0.7674 H   0  0  0  0  0  0  0  0  0  0  0  0
    9.1677   -1.6118   -0.6852 H   0  0  0  0  0  0  0  0  0  0  0  0
    7.8921    0.0218    1.3390 H   0  0  0  0  0  0  0  0  0  0  0  0
    8.2484   -1.7017    1.4645 H   0  0  0  0  0  0  0  0  0  0  0  0
   -0.6928    2.2933   -0.5881 H   0  0  0  0  0  0  0  0  0  0  0  0
    0.0955    2.4203    0.9789 H   0  0  0  0  0  0  0  0  0  0  0  0
    0.9513    0.5157   -1.2606 H   0  0  0  0  0  0  0  0  0  0  0  0
    1.6517    2.0945   -0.9564 H   0  0  0  0  0  0  0  0  0  0  0  0
   -7.5764   -3.9835   -0.8841 H   0  0  0  0  0  0  0  0  0  0  0  0
   -7.4074   -2.2853   -2.6358 H   0  0  0  0  0  0  0  0  0  0  0  0
   -6.0826   -3.9023    1.0910 H   0  0  0  0  0  0  0  0  0  0  0  0
    7.1848   -2.2933   -1.7191 H   0  0  0  0  0  0  0  0  0  0  0  0
    7.3076   -0.7010   -2.4750 H   0  0  0  0  0  0  0  0  0  0  0  0
    6.1199   -2.3403    0.7750 H   0  0  0  0  0  0  0  0  0  0  0  0
    5.6701   -0.7736    1.4508 H   0  0  0  0  0  0  0  0  0  0  0  0
   -2.1884    0.7903    3.2711 H   0  0  0  0  0  0  0  0  0  0  0  0
   -1.2357    2.1200    2.6582 H   0  0  0  0  0  0  0  0  0  0  0  0
   -1.1732   -0.1014   -0.1932 H   0  0  0  0  0  0  0  0  0  0  0  0
   -0.5175   -0.0219    1.4351 H   0  0  0  0  0  0  0  0  0  0  0  0
    2.3634    1.3664    1.3357 H   0  0  0  0  0  0  0  0  0  0  0  0
    1.6886   -0.2321    1.0475 H   0  0  0  0  0  0  0  0  0  0  0  0
   -4.4227    0.9581   -0.6335 H   0  0  0  0  0  0  0  0  0  0  0  0
   -3.1547   -0.1858   -1.1076 H   0  0  0  0  0  0  0  0  0  0  0  0
    5.6233    1.0211   -1.9050 H   0  0  0  0  0  0  0  0  0  0  0  0
    6.5138    1.2674   -0.3988 H   0  0  0  0  0  0  0  0  0  0  0  0
    4.5726   -1.2681   -2.3887 H   0  0  0  0  0  0  0  0  0  0  0  0
    4.7866   -2.5815   -1.2236 H   0  0  0  0  0  0  0  0  0  0  0  0
   -2.3743   -1.8631    0.8557 H   0  0  0  0  0  0  0  0  0  0  0  0
   -2.6808   -1.3626    2.5188 H   0  0  0  0  0  0  0  0  0  0  0  0
   -4.2671    0.4150    1.6579 H   0  0  0  0  0  0  0  0  0  0  0  0
  1  3  1  0
  2 31  1  0
  3 13  1  0
  4  5  1  0
  4 11  1  0
  5 12  1  0
  6  7  1  0
  6 14  1  0
  7 15  1  0
  8  9  2  0
  8 10  1  0
  9 22  1  0
 10 23  2  0
 11 26  1  0
 12 26  1  0
 13 27  1  0
 14 27  1  0
 15 28  1  0
 16 20  1  0
 16 21  1  0
 17 24  1  0
 17 26  1  0
 18 25  1  0
 18 26  1  0
 19 20  1  0
 19 32  1  0
 20 27  1  0
 21 22  2  0
 21 23  1  0
 22 31  1  0
 23 32  1  0
 24 28  1  0
 24 29  2  0
 25 28  1  0
 25 30  2  0
  1 33  1  0
  1 34  1  0
  1 35  1  0
  2 36  1  0
  2 37  1  0
  2 38  1  0
  3 39  1  0
  3 40  1  0
  4 41  1  0
  4 42  1  0
  5 43  1  0
  5 44  1  0
  6 45  1  0
  6 46  1  0
  7 47  1  0
  7 48  1  0
  8 49  1  0
  9 50  1  0
 10 51  1  0
 11 52  1  0
 11 53  1  0
 12 54  1  0
 12 55  1  0
 13 56  1  0
 13 57  1  0
 14 58  1  0
 14 59  1  0
 15 60  1  0
 15 61  1  0
 16 62  1  0
 16 63  1  0
 17 64  1  0
 17 65  1  0
 18 66  1  0
 18 67  1  0
 19 68  1  0
 19 69  1  0
 20 70  1  0
M  END
