
     RDKit          3D

 18 19  0  0  0  0  0  0  0  0999 V2000
    0.0982   -1.3086    0.0850 C   0  0  0  0  0  0  0  0  0  0  0  0
   -1.3831   -1.1004   -0.3498 C   0  0  0  0  0  0  0  0  0  0  0  0
   -1.3379    1.3491   -0.1610 C   0  0  0  0  0  0  0  0  0  0  0  0
    0.8122   -0.0138    0.0546 C   0  0  0  0  0  0  0  0  0  0  0  0
    0.1231    1.1689   -0.0418 C   0  0  0  0  0  0  0  0  0  0  0  0
    2.1402    0.4065    0.1174 C   0  0  0  0  0  0  0  0  0  0  0  0
   -2.0308    0.0974    0.2449 N   0  0  0  0  0  0  0  0  0  0  0  0
    2.2764    1.7318    0.0609 N   0  0  0  0  0  0  0  0  0  0  0  0
    3.2558   -0.3221    0.2262 O   0  0  0  0  0  0  0  0  0  0  0  0
    0.9706    2.2227   -0.0452 O   0  0  0  0  0  0  0  0  0  0  0  0
    0.5788   -2.0365   -0.5770 H   0  0  0  0  0  0  0  0  0  0  0  0
    0.1246   -1.7089    1.1054 H   0  0  0  0  0  0  0  0  0  0  0  0
   -1.9628   -1.9879   -0.0722 H   0  0  0  0  0  0  0  0  0  0  0  0
   -1.4399   -1.0225   -1.4434 H   0  0  0  0  0  0  0  0  0  0  0  0
   -1.6846    2.1713    0.4728 H   0  0  0  0  0  0  0  0  0  0  0  0
   -1.6042    1.5893   -1.1960 H   0  0  0  0  0  0  0  0  0  0  0  0
   -1.9658    0.0269    1.2612 H   0  0  0  0  0  0  0  0  0  0  0  0
    3.0293   -1.2631    0.2584 H   0  0  0  0  0  0  0  0  0  0  0  0
  1  2  1  0
  1  4  1  0
  2  7  1  0
  3  5  1  0
  3  7  1  0
  4  5  2  0
  4  6  1  0
  5 10  1  0
  6  8  2  0
  6  9  1  0
  8 10  1  0
  1 11  1  0
  1 12  1  0
  2 13  1  0
  2 14  1  0
  3 15  1  0
  3 16  1  0
  7 17  1  0
  9 18  1  0
M  END
