
     RDKit          3D

 75 77  0  0  0  0  0  0  0  0999 V2000
    7.1669    2.5603   -1.0161 C   0  0  0  0  0  0  0  0  0  0  0  0
    2.5149   -0.7016   -2.8721 C   0  0  0  0  0  0  0  0  0  0  0  0
    2.3794   -2.9128   -1.6728 C   0  0  0  0  0  0  0  0  0  0  0  0
   -4.6600   -1.4780   -1.2519 C   0  0  0  0  0  0  0  0  0  0  0  0
    6.7986    1.1380   -1.4112 C   0  0  0  0  0  0  0  0  0  0  0  0
    6.6237    0.2464   -0.1820 C   0  0  0  0  0  0  0  0  0  0  0  0
    6.3659   -1.2239   -0.5257 C   0  0  0  0  0  0  0  0  0  0  0  0
    5.1265   -1.5070   -1.3863 C   0  0  0  0  0  0  0  0  0  0  0  0
   -3.0548    2.1042   -1.4273 C   0  0  0  0  0  0  0  0  0  0  0  0
   -4.8395    0.7537    2.7328 C   0  0  0  0  0  0  0  0  0  0  0  0
   -4.9778    0.1688    1.3283 C   0  0  0  0  0  0  0  0  0  0  0  0
    3.8158   -1.0488   -0.7254 C   0  0  0  0  0  0  0  0  0  0  0  0
   -3.9213    0.8556   -1.6151 C   0  0  0  0  0  0  0  0  0  0  0  0
   -3.7649    3.2042   -0.6469 C   0  0  0  0  0  0  0  0  0  0  0  0
   -2.4135    0.0442    2.9046 C   0  0  0  0  0  0  0  0  0  0  0  0
    1.2900   -0.1746    0.4832 C   0  0  0  0  0  0  0  0  0  0  0  0
   -0.0551   -1.1319   -1.2351 C   0  0  0  0  0  0  0  0  0  0  0  0
   -4.2597   -1.3886    3.9666 C   0  0  0  0  0  0  0  0  0  0  0  0
   -3.8003    0.0287    3.5888 C   0  0  0  0  0  0  0  0  0  0  0  0
    1.2299   -0.8890   -0.7198 C   0  0  0  0  0  0  0  0  0  0  0  0
   -2.4308    0.3374    1.3769 C   0  0  0  0  0  0  0  0  0  0  0  0
   -3.6515   -0.3599    0.7510 C   0  0  0  0  0  0  0  0  0  0  0  0
    0.1216    0.2352    1.1451 C   0  0  0  0  0  0  0  0  0  0  0  0
   -1.2211   -0.7155   -0.5739 C   0  0  0  0  0  0  0  0  0  0  0  0
   -1.1579   -0.0691    0.6604 C   0  0  0  0  0  0  0  0  0  0  0  0
    2.4849   -1.3811   -1.4836 C   0  0  0  0  0  0  0  0  0  0  0  0
   -3.6086   -0.4312   -0.7949 C   0  0  0  0  0  0  0  0  0  0  0  0
   -2.8996    4.3250   -0.5317 O   0  0  0  0  0  0  0  0  0  0  0  0
   -3.4757   -1.9045    5.0375 O   0  0  0  0  0  0  0  0  0  0  0  0
    0.2467    0.9766    2.2888 O   0  0  0  0  0  0  0  0  0  0  0  0
   -2.3689   -0.9952   -1.2563 O   0  0  0  0  0  0  0  0  0  0  0  0
    8.0999    2.5803   -0.4441 H   0  0  0  0  0  0  0  0  0  0  0  0
    6.3796    3.0142   -0.4056 H   0  0  0  0  0  0  0  0  0  0  0  0
    7.3034    3.1782   -1.9089 H   0  0  0  0  0  0  0  0  0  0  0  0
    2.6213    0.3853   -2.7755 H   0  0  0  0  0  0  0  0  0  0  0  0
    1.6015   -0.8885   -3.4480 H   0  0  0  0  0  0  0  0  0  0  0  0
    3.3439   -1.0685   -3.4857 H   0  0  0  0  0  0  0  0  0  0  0  0
    2.3935   -3.4290   -0.7057 H   0  0  0  0  0  0  0  0  0  0  0  0
    1.4589   -3.2088   -2.1876 H   0  0  0  0  0  0  0  0  0  0  0  0
    3.2010   -3.3068   -2.2789 H   0  0  0  0  0  0  0  0  0  0  0  0
   -5.6835   -1.1626   -1.0259 H   0  0  0  0  0  0  0  0  0  0  0  0
   -4.5897   -1.6573   -2.3316 H   0  0  0  0  0  0  0  0  0  0  0  0
   -4.4815   -2.4492   -0.7756 H   0  0  0  0  0  0  0  0  0  0  0  0
    7.5831    0.7303   -2.0586 H   0  0  0  0  0  0  0  0  0  0  0  0
    5.8734    1.1668   -1.9961 H   0  0  0  0  0  0  0  0  0  0  0  0
    5.8147    0.6342    0.4476 H   0  0  0  0  0  0  0  0  0  0  0  0
    7.5344    0.2953    0.4282 H   0  0  0  0  0  0  0  0  0  0  0  0
    7.2453   -1.6234   -1.0469 H   0  0  0  0  0  0  0  0  0  0  0  0
    6.2833   -1.7891    0.4115 H   0  0  0  0  0  0  0  0  0  0  0  0
    5.2497   -1.0340   -2.3650 H   0  0  0  0  0  0  0  0  0  0  0  0
    5.0999   -2.5873   -1.5609 H   0  0  0  0  0  0  0  0  0  0  0  0
   -2.0790    1.8898   -0.9903 H   0  0  0  0  0  0  0  0  0  0  0  0
   -2.8191    2.5144   -2.4188 H   0  0  0  0  0  0  0  0  0  0  0  0
   -5.8175    0.7567    3.2286 H   0  0  0  0  0  0  0  0  0  0  0  0
   -4.5432    1.8073    2.6454 H   0  0  0  0  0  0  0  0  0  0  0  0
   -5.4204    0.9382    0.6874 H   0  0  0  0  0  0  0  0  0  0  0  0
   -5.7044   -0.6539    1.3530 H   0  0  0  0  0  0  0  0  0  0  0  0
    3.8726    0.0385   -0.5897 H   0  0  0  0  0  0  0  0  0  0  0  0
    3.7767   -1.4943    0.2778 H   0  0  0  0  0  0  0  0  0  0  0  0
   -4.9787    1.1248   -1.5001 H   0  0  0  0  0  0  0  0  0  0  0  0
   -3.8068    0.5828   -2.6749 H   0  0  0  0  0  0  0  0  0  0  0  0
   -4.0375    2.8766    0.3580 H   0  0  0  0  0  0  0  0  0  0  0  0
   -4.6723    3.5237   -1.1695 H   0  0  0  0  0  0  0  0  0  0  0  0
   -1.8319    0.8313    3.4010 H   0  0  0  0  0  0  0  0  0  0  0  0
   -1.8752   -0.8913    3.0997 H   0  0  0  0  0  0  0  0  0  0  0  0
    2.2468    0.0808    0.9259 H   0  0  0  0  0  0  0  0  0  0  0  0
   -0.1774   -1.6479   -2.1856 H   0  0  0  0  0  0  0  0  0  0  0  0
   -5.2978   -1.3712    4.3161 H   0  0  0  0  0  0  0  0  0  0  0  0
   -4.2028   -2.0896    3.1294 H   0  0  0  0  0  0  0  0  0  0  0  0
   -3.6965    0.5827    4.5320 H   0  0  0  0  0  0  0  0  0  0  0  0
   -2.5276    1.4214    1.2527 H   0  0  0  0  0  0  0  0  0  0  0  0
   -3.5691   -1.4079    1.0817 H   0  0  0  0  0  0  0  0  0  0  0  0
   -3.3921    5.0195   -0.0634 H   0  0  0  0  0  0  0  0  0  0  0  0
   -2.5694   -2.0346    4.7111 H   0  0  0  0  0  0  0  0  0  0  0  0
    1.1865    1.1564    2.4515 H   0  0  0  0  0  0  0  0  0  0  0  0
  1  5  1  0
  2 26  1  0
  3 26  1  0
  4 27  1  0
  5  6  1  0
  6  7  1  0
  7  8  1  0
  8 12  1  0
  9 13  1  0
  9 14  1  0
 10 11  1  0
 10 19  1  0
 11 22  1  0
 12 26  1  0
 13 27  1  0
 14 28  1  0
 15 19  1  0
 15 21  1  0
 16 20  2  0
 16 23  1  0
 17 20  1  0
 17 24  2  0
 18 19  1  0
 18 29  1  0
 20 26  1  0
 21 22  1  0
 21 25  1  0
 22 27  1  0
 23 25  2  0
 23 30  1  0
 24 25  1  0
 24 31  1  0
 27 31  1  0
  1 32  1  0
  1 33  1  0
  1 34  1  0
  2 35  1  0
  2 36  1  0
  2 37  1  0
  3 38  1  0
  3 39  1  0
  3 40  1  0
  4 41  1  0
  4 42  1  0
  4 43  1  0
  5 44  1  0
  5 45  1  0
  6 46  1  0
  6 47  1  0
  7 48  1  0
  7 49  1  0
  8 50  1  0
  8 51  1  0
  9 52  1  0
  9 53  1  0
 10 54  1  0
 10 55  1  0
 11 56  1  0
 11 57  1  0
 12 58  1  0
 12 59  1  0
 13 60  1  0
 13 61  1  0
 14 62  1  0
 14 63  1  0
 15 64  1  0
 15 65  1  0
 16 66  1  0
 17 67  1  0
 18 68  1  0
 18 69  1  0
 19 70  1  0
 21 71  1  0
 22 72  1  0
 28 73  1  0
 29 74  1  0
 30 75  1  0
M  END
