
     RDKit          3D

 25 24  0  0  0  0  0  0  0  0999 V2000
    2.3562    0.4185   -0.9498 C   0  0  0  0  0  0  0  0  0  0  0  0
    0.0985    0.1195    2.2179 C   0  0  0  0  0  0  0  0  0  0  0  0
   -0.9835   -1.5885   -0.8835 C   0  0  0  0  0  0  0  0  0  0  0  0
    1.7720   -0.1130    0.3510 C   0  0  0  0  0  0  0  0  0  0  0  0
   -0.6189    0.8486   -0.1213 C   0  0  0  0  0  0  0  0  0  0  0  0
    0.5571    0.6805    0.8691 C   0  0  0  0  0  0  0  0  0  0  0  0
   -1.6041   -0.3237   -0.3029 C   0  0  0  0  0  0  0  0  0  0  0  0
   -2.6838    0.0991   -1.2057 N   0  0  0  0  0  0  0  0  0  0  0  0
    3.2972   -0.0943   -1.1740 H   0  0  0  0  0  0  0  0  0  0  0  0
    2.5645    1.4907   -0.8798 H   0  0  0  0  0  0  0  0  0  0  0  0
    1.6823    0.2472   -1.7937 H   0  0  0  0  0  0  0  0  0  0  0  0
   -0.1988   -0.9310    2.1400 H   0  0  0  0  0  0  0  0  0  0  0  0
   -0.7499    0.6901    2.6100 H   0  0  0  0  0  0  0  0  0  0  0  0
    0.9068    0.1802    2.9548 H   0  0  0  0  0  0  0  0  0  0  0  0
   -1.7568   -2.3138   -1.1639 H   0  0  0  0  0  0  0  0  0  0  0  0
   -0.3856   -1.3752   -1.7759 H   0  0  0  0  0  0  0  0  0  0  0  0
   -0.3501   -2.0889   -0.1470 H   0  0  0  0  0  0  0  0  0  0  0  0
    1.5355   -1.1732    0.2322 H   0  0  0  0  0  0  0  0  0  0  0  0
    2.5614   -0.0692    1.1130 H   0  0  0  0  0  0  0  0  0  0  0  0
   -1.2036    1.7068    0.2432 H   0  0  0  0  0  0  0  0  0  0  0  0
   -0.2363    1.1669   -1.0985 H   0  0  0  0  0  0  0  0  0  0  0  0
    0.9247    1.6983    1.0657 H   0  0  0  0  0  0  0  0  0  0  0  0
   -2.0687   -0.5698    0.6579 H   0  0  0  0  0  0  0  0  0  0  0  0
   -3.1213    0.9458   -0.8441 H   0  0  0  0  0  0  0  0  0  0  0  0
   -2.2947    0.3484   -2.1146 H   0  0  0  0  0  0  0  0  0  0  0  0
  1  4  1  0
  2  6  1  0
  3  7  1  0
  4  6  1  0
  5  6  1  0
  5  7  1  0
  7  8  1  0
  1  9  1  0
  1 10  1  0
  1 11  1  0
  2 12  1  0
  2 13  1  0
  2 14  1  0
  3 15  1  0
  3 16  1  0
  3 17  1  0
  4 18  1  0
  4 19  1  0
  5 20  1  0
  5 21  1  0
  6 22  1  0
  7 23  1  0
  8 24  1  0
  8 25  1  0
M  END
