
     RDKit          3D

 69 74  0  0  0  0  0  0  0  0999 V2000
    3.6047   -3.6411   -1.2784 C   0  0  0  0  0  0  0  0  0  0  0  0
    4.6415   -3.6564   -0.3564 C   0  0  0  0  0  0  0  0  0  0  0  0
   -3.9584   -2.7460   -1.6880 C   0  0  0  0  0  0  0  0  0  0  0  0
   -6.4502    2.1304    1.0667 C   0  0  0  0  0  0  0  0  0  0  0  0
   -5.5305    2.9514    1.9699 C   0  0  0  0  0  0  0  0  0  0  0  0
   -3.4241   -3.7702   -0.9153 C   0  0  0  0  0  0  0  0  0  0  0  0
    3.0121   -2.4294   -1.6316 C   0  0  0  0  0  0  0  0  0  0  0  0
    5.0711   -2.4646    0.2282 C   0  0  0  0  0  0  0  0  0  0  0  0
   -3.5180   -1.4366   -1.4966 C   0  0  0  0  0  0  0  0  0  0  0  0
    3.0053    1.3291   -0.6134 C   0  0  0  0  0  0  0  0  0  0  0  0
   -5.5484    1.5233   -0.0092 C   0  0  0  0  0  0  0  0  0  0  0  0
   -4.1346    2.8596    1.3468 C   0  0  0  0  0  0  0  0  0  0  0  0
    3.7022    1.0209    0.7109 C   0  0  0  0  0  0  0  0  0  0  0  0
   -0.8224    0.5196   -1.1939 C   0  0  0  0  0  0  0  0  0  0  0  0
   -1.6207    0.3839    1.2493 C   0  0  0  0  0  0  0  0  0  0  0  0
   -2.4493   -3.4387    0.0050 C   0  0  0  0  0  0  0  0  0  0  0  0
    0.4374   -0.3436   -1.0028 C   0  0  0  0  0  0  0  0  0  0  0  0
   -2.8255    0.2296    2.1805 C   0  0  0  0  0  0  0  0  0  0  0  0
    7.5674    0.7955    0.7156 C   0  0  0  0  0  0  0  0  0  0  0  0
    6.9789    1.0344    2.0868 C   0  0  0  0  0  0  0  0  0  0  0  0
   -3.0579    1.3872   -0.4802 C   0  0  0  0  0  0  0  0  0  0  0  0
    3.4112   -1.2151   -1.0377 C   0  0  0  0  0  0  0  0  0  0  0  0
    4.4531   -1.2307   -0.0736 C   0  0  0  0  0  0  0  0  0  0  0  0
    2.8237    0.1012   -1.5371 C   0  0  0  0  0  0  0  0  0  0  0  0
   -2.5563   -1.1712   -0.5196 C   0  0  0  0  0  0  0  0  0  0  0  0
   -2.0222    0.2444   -0.2383 C   0  0  0  0  0  0  0  0  0  0  0  0
   -4.1396    1.5096    0.6097 C   0  0  0  0  0  0  0  0  0  0  0  0
    4.9129    0.0802    0.5652 C   0  0  0  0  0  0  0  0  0  0  0  0
    1.4293    0.0383   -2.0286 N   0  0  0  0  0  0  0  0  0  0  0  0
   -2.0052   -2.1788    0.2113 N   0  0  0  0  0  0  0  0  0  0  0  0
   -4.0837    0.4267    1.5364 O   0  0  0  0  0  0  0  0  0  0  0  0
    6.2163    0.8652   -0.4884 S   0  0  0  0  0  0  0  0  0  0  0  0
    5.5918   -0.1094    2.2786 S   0  0  0  0  0  0  0  0  0  0  0  0
    3.2698   -4.5665   -1.7402 H   0  0  0  0  0  0  0  0  0  0  0  0
    5.1232   -4.5956   -0.0942 H   0  0  0  0  0  0  0  0  0  0  0  0
   -4.7256   -2.9666   -2.4223 H   0  0  0  0  0  0  0  0  0  0  0  0
   -6.9481    1.3446    1.6473 H   0  0  0  0  0  0  0  0  0  0  0  0
   -7.2320    2.7518    0.6134 H   0  0  0  0  0  0  0  0  0  0  0  0
   -5.8595    3.9912    2.0573 H   0  0  0  0  0  0  0  0  0  0  0  0
   -5.5281    2.5222    2.9797 H   0  0  0  0  0  0  0  0  0  0  0  0
   -3.7559   -4.7948   -1.0327 H   0  0  0  0  0  0  0  0  0  0  0  0
    2.2288   -2.4345   -2.3895 H   0  0  0  0  0  0  0  0  0  0  0  0
    5.9050   -2.5168    0.9254 H   0  0  0  0  0  0  0  0  0  0  0  0
   -3.9370   -0.6513   -2.1181 H   0  0  0  0  0  0  0  0  0  0  0  0
    3.5617    2.1053   -1.1623 H   0  0  0  0  0  0  0  0  0  0  0  0
    2.0412    1.8104   -0.3881 H   0  0  0  0  0  0  0  0  0  0  0  0
   -5.5757    2.1638   -0.9017 H   0  0  0  0  0  0  0  0  0  0  0  0
   -5.8973    0.5243   -0.2922 H   0  0  0  0  0  0  0  0  0  0  0  0
   -3.3630    2.9344    2.1253 H   0  0  0  0  0  0  0  0  0  0  0  0
   -3.9933    3.6934    0.6454 H   0  0  0  0  0  0  0  0  0  0  0  0
    3.9740    1.9683    1.1978 H   0  0  0  0  0  0  0  0  0  0  0  0
    2.9532    0.5477    1.3674 H   0  0  0  0  0  0  0  0  0  0  0  0
   -1.1681    0.4228   -2.2357 H   0  0  0  0  0  0  0  0  0  0  0  0
   -0.5162    1.5709   -1.0763 H   0  0  0  0  0  0  0  0  0  0  0  0
   -1.1786    1.3783    1.4144 H   0  0  0  0  0  0  0  0  0  0  0  0
   -0.8421   -0.3276    1.5541 H   0  0  0  0  0  0  0  0  0  0  0  0
   -1.9890   -4.2001    0.6299 H   0  0  0  0  0  0  0  0  0  0  0  0
    0.8261   -0.2009    0.0124 H   0  0  0  0  0  0  0  0  0  0  0  0
    0.2009   -1.4047   -1.1333 H   0  0  0  0  0  0  0  0  0  0  0  0
   -2.7444    0.9075    3.0363 H   0  0  0  0  0  0  0  0  0  0  0  0
   -2.8420   -0.7854    2.5959 H   0  0  0  0  0  0  0  0  0  0  0  0
    8.0567   -0.1818    0.6506 H   0  0  0  0  0  0  0  0  0  0  0  0
    8.3153    1.5581    0.4737 H   0  0  0  0  0  0  0  0  0  0  0  0
    7.7232    0.8514    2.8676 H   0  0  0  0  0  0  0  0  0  0  0  0
    6.6233    2.0633    2.1997 H   0  0  0  0  0  0  0  0  0  0  0  0
   -3.5111    1.2972   -1.4734 H   0  0  0  0  0  0  0  0  0  0  0  0
   -2.5241    2.3464   -0.5316 H   0  0  0  0  0  0  0  0  0  0  0  0
    3.4175    0.3187   -2.4383 H   0  0  0  0  0  0  0  0  0  0  0  0
    1.1996    0.9557   -2.3998 H   0  0  0  0  0  0  0  0  0  0  0  0
  1  2  2  0
  1  7  1  0
  2  8  1  0
  3  6  2  0
  3  9  1  0
  4  5  1  0
  4 11  1  0
  5 12  1  0
  6 16  1  0
  7 22  2  0
  8 23  2  0
  9 25  2  0
 10 13  1  0
 10 24  1  0
 11 27  1  0
 12 27  1  0
 13 28  1  0
 14 17  1  0
 14 26  1  0
 15 18  1  0
 15 26  1  0
 16 30  2  0
 17 29  1  0
 18 31  1  0
 19 20  1  0
 19 32  1  0
 20 33  1  0
 21 26  1  0
 21 27  1  0
 22 23  1  0
 22 24  1  0
 23 28  1  0
 24 29  1  0
 25 26  1  0
 25 30  1  0
 27 31  1  0
 28 32  1  0
 28 33  1  0
  1 34  1  0
  2 35  1  0
  3 36  1  0
  4 37  1  0
  4 38  1  0
  5 39  1  0
  5 40  1  0
  6 41  1  0
  7 42  1  0
  8 43  1  0
  9 44  1  0
 10 45  1  0
 10 46  1  0
 11 47  1  0
 11 48  1  0
 12 49  1  0
 12 50  1  0
 13 51  1  0
 13 52  1  0
 14 53  1  0
 14 54  1  0
 15 55  1  0
 15 56  1  0
 16 57  1  0
 17 58  1  0
 17 59  1  0
 18 60  1  0
 18 61  1  0
 19 62  1  0
 19 63  1  0
 20 64  1  0
 20 65  1  0
 21 66  1  0
 21 67  1  0
 24 68  1  0
 29 69  1  0
M  END
