
     RDKit          3D

 17 18  0  0  0  0  0  0  0  0999 V2000
   -2.3478    0.0936   -0.0956 C   0  0  0  0  0  0  0  0  0  0  0  0
   -2.0427   -1.2563    0.0662 C   0  0  0  0  0  0  0  0  0  0  0  0
   -1.3337    1.0561   -0.1663 C   0  0  0  0  0  0  0  0  0  0  0  0
   -0.7170   -1.6900    0.1627 C   0  0  0  0  0  0  0  0  0  0  0  0
    0.0181    0.6552   -0.0725 C   0  0  0  0  0  0  0  0  0  0  0  0
    0.2937   -0.7243    0.0915 C   0  0  0  0  0  0  0  0  0  0  0  0
    1.2800    1.4092   -0.1109 C   0  0  0  0  0  0  0  0  0  0  0  0
    2.4356    0.7528    0.0043 N   0  0  0  0  0  0  0  0  0  0  0  0
    1.3992    2.7350   -0.2547 O   0  0  0  0  0  0  0  0  0  0  0  0
    2.5711   -1.6538   -0.9813 O   0  0  0  0  0  0  0  0  0  0  0  0
    2.4810   -1.3764    1.5030 O   0  0  0  0  0  0  0  0  0  0  0  0
    1.9098   -0.7175    0.1494 S   0  0  0  0  0  6  0  0  0  0  0  0
   -3.3884    0.4056   -0.1682 H   0  0  0  0  0  0  0  0  0  0  0  0
   -2.8491   -1.9864    0.1185 H   0  0  0  0  0  0  0  0  0  0  0  0
   -1.5845    2.1071   -0.2928 H   0  0  0  0  0  0  0  0  0  0  0  0
   -0.4783   -2.7428    0.2889 H   0  0  0  0  0  0  0  0  0  0  0  0
    2.3531    2.9331   -0.2422 H   0  0  0  0  0  0  0  0  0  0  0  0
  1  2  2  0
  1  3  1  0
  2  4  1  0
  3  5  2  0
  4  6  2  0
  5  6  1  0
  5  7  1  0
  6 12  1  0
  7  8  2  0
  7  9  1  0
  8 12  1  0
 10 12  2  0
 11 12  2  0
  1 13  1  0
  2 14  1  0
  3 15  1  0
  4 16  1  0
  9 17  1  0
M  END
