
     RDKit          3D

 11 10  0  0  0  0  0  0  0  0999 V2000
   -0.0009   -0.1809   -0.5549 C   0  0  0  0  0  0  0  0  0  0  0  0
    1.4828   -0.0425   -0.2866 C   0  0  0  0  0  0  0  0  0  0  0  0
   -2.1910    0.1553    0.2167 N   0  0  0  0  0  0  0  0  0  0  0  0
    2.3477    0.1311   -1.1330 O   0  0  0  0  0  0  0  0  0  0  0  0
    1.8320   -0.1896    1.0079 O   0  0  0  0  0  0  0  0  0  0  0  0
   -0.7740    0.3272    0.5302 O   0  0  0  0  0  0  0  0  0  0  0  0
   -0.2343    0.3923   -1.4591 H   0  0  0  0  0  0  0  0  0  0  0  0
   -0.2202   -1.2425   -0.7124 H   0  0  0  0  0  0  0  0  0  0  0  0
   -2.5103   -0.3665    1.0358 H   0  0  0  0  0  0  0  0  0  0  0  0
   -2.5387    1.1076    0.3471 H   0  0  0  0  0  0  0  0  0  0  0  0
    2.8068   -0.0914    1.0081 H   0  0  0  0  0  0  0  0  0  0  0  0
  1  2  1  0
  1  6  1  0
  2  4  2  0
  2  5  1  0
  3  6  1  0
  1  7  1  0
  1  8  1  0
  3  9  1  0
  3 10  1  0
  5 11  1  0
M  END
