
     RDKit          3D

 81 84  0  0  0  0  0  0  0  0999 V2000
    8.3012   -2.1912    2.9431 C   0  0  0  0  0  0  0  0  0  0  0  0
   -4.9431   -0.9716    4.8375 C   0  0  0  0  0  0  0  0  0  0  0  0
   -8.8549   -1.1854    1.5731 C   0  0  0  0  0  0  0  0  0  0  0  0
    8.9826    1.1447   -0.0635 C   0  0  0  0  0  0  0  0  0  0  0  0
    0.6141    1.4207   -2.2117 C   0  0  0  0  0  0  0  0  0  0  0  0
    7.6619    1.3872   -0.4426 C   0  0  0  0  0  0  0  0  0  0  0  0
    9.3902   -0.1502    0.2540 C   0  0  0  0  0  0  0  0  0  0  0  0
   -5.9087   -0.8007   -2.0869 C   0  0  0  0  0  0  0  0  0  0  0  0
   -6.6867   -0.4564   -3.1958 C   0  0  0  0  0  0  0  0  0  0  0  0
    4.3312    0.5476    0.2424 C   0  0  0  0  0  0  0  0  0  0  0  0
    4.8153   -0.2765   -2.0832 C   0  0  0  0  0  0  0  0  0  0  0  0
   -0.8627    1.4134   -2.6108 C   0  0  0  0  0  0  0  0  0  0  0  0
    1.0652    0.0763   -1.6237 C   0  0  0  0  0  0  0  0  0  0  0  0
    2.9008    0.8553   -0.2083 C   0  0  0  0  0  0  0  0  0  0  0  0
    3.3712    0.0612   -2.4568 C   0  0  0  0  0  0  0  0  0  0  0  0
    7.1575   -0.9558   -0.1761 C   0  0  0  0  0  0  0  0  0  0  0  0
   -5.7323    1.5387   -1.4849 C   0  0  0  0  0  0  0  0  0  0  0  0
   -5.8674    0.8101    3.5715 C   0  0  0  0  0  0  0  0  0  0  0  0
    8.7947   -2.9192    1.7351 C   0  0  0  0  0  0  0  0  0  0  0  0
    5.3040    0.6300   -0.9428 C   0  0  0  0  0  0  0  0  0  0  0  0
    6.7322    0.3392   -0.5159 C   0  0  0  0  0  0  0  0  0  0  0  0
   -5.4168    0.1927   -1.2195 C   0  0  0  0  0  0  0  0  0  0  0  0
    8.4773   -1.2046    0.2158 C   0  0  0  0  0  0  0  0  0  0  0  0
   -6.9783    0.8801   -3.4435 C   0  0  0  0  0  0  0  0  0  0  0  0
   -6.5048    1.8701   -2.5947 C   0  0  0  0  0  0  0  0  0  0  0  0
   -5.0991    0.7360    2.2622 C   0  0  0  0  0  0  0  0  0  0  0  0
   -5.4001   -0.1058    1.2563 C   0  0  0  0  0  0  0  0  0  0  0  0
   -4.5768   -0.2102    0.0047 C   0  0  0  0  0  0  0  0  0  0  0  0
   -6.5403   -1.0404    1.3005 C   0  0  0  0  0  0  0  0  0  0  0  0
   -2.4768    0.5267   -1.0087 C   0  0  0  0  0  0  0  0  0  0  0  0
   -3.2387    1.4433    1.1632 C   0  0  0  0  0  0  0  0  0  0  0  0
   -7.7251    1.2027   -4.5091 F   0  0  0  0  0  0  0  0  0  0  0  0
   -6.7905    3.1571   -2.8354 F   0  0  0  0  0  0  0  0  0  0  0  0
   -1.7057    1.4522   -1.4325 N   0  0  0  0  0  0  0  0  0  0  0  0
    8.8891   -2.5106    0.5152 N   0  0  0  0  0  0  0  0  0  0  0  0
   -4.0062    1.5697    2.1930 N   0  0  0  0  0  0  0  0  0  0  0  0
    2.4917   -0.0517   -1.2874 N   0  0  0  0  0  0  0  0  0  0  0  0
   -3.3422    0.6074    0.0728 N   0  0  0  0  0  0  0  0  0  0  0  0
    9.1895   -4.1762    1.9851 O   0  0  0  0  0  0  0  0  0  0  0  0
   -6.4424   -2.2223    1.0054 O   0  0  0  0  0  0  0  0  0  0  0  0
   -2.5075   -0.6829   -1.6068 O   0  0  0  0  0  0  0  0  0  0  0  0
   -2.1576    2.2374    1.1931 O   0  0  0  0  0  0  0  0  0  0  0  0
   -6.0837   -0.4849    4.1384 O   0  0  0  0  0  0  0  0  0  0  0  0
   -7.6867   -0.3654    1.5646 O   0  0  0  0  0  0  0  0  0  0  0  0
    7.2670   -1.8705    2.7929 H   0  0  0  0  0  0  0  0  0  0  0  0
    8.3353   -2.8450    3.8214 H   0  0  0  0  0  0  0  0  0  0  0  0
    8.9346   -1.3205    3.1356 H   0  0  0  0  0  0  0  0  0  0  0  0
   -5.1979   -1.9399    5.2743 H   0  0  0  0  0  0  0  0  0  0  0  0
   -4.1001   -1.1119    4.1559 H   0  0  0  0  0  0  0  0  0  0  0  0
   -4.6669   -0.2894    5.6451 H   0  0  0  0  0  0  0  0  0  0  0  0
   -8.7429   -2.0151    2.2782 H   0  0  0  0  0  0  0  0  0  0  0  0
   -9.6993   -0.5702    1.8964 H   0  0  0  0  0  0  0  0  0  0  0  0
   -9.0604   -1.5577    0.5650 H   0  0  0  0  0  0  0  0  0  0  0  0
    9.6944    1.9645   -0.0242 H   0  0  0  0  0  0  0  0  0  0  0  0
    0.7898    2.2295   -1.4930 H   0  0  0  0  0  0  0  0  0  0  0  0
    1.1995    1.6501   -3.1092 H   0  0  0  0  0  0  0  0  0  0  0  0
    7.3649    2.4046   -0.6924 H   0  0  0  0  0  0  0  0  0  0  0  0
   10.4238   -0.3390    0.5309 H   0  0  0  0  0  0  0  0  0  0  0  0
   -5.6918   -1.8526   -1.8998 H   0  0  0  0  0  0  0  0  0  0  0  0
   -7.0687   -1.2219   -3.8649 H   0  0  0  0  0  0  0  0  0  0  0  0
    4.6285    1.2578    1.0231 H   0  0  0  0  0  0  0  0  0  0  0  0
    4.3612   -0.4518    0.6967 H   0  0  0  0  0  0  0  0  0  0  0  0
    5.4593   -0.1558   -2.9627 H   0  0  0  0  0  0  0  0  0  0  0  0
    4.8692   -1.3341   -1.7963 H   0  0  0  0  0  0  0  0  0  0  0  0
   -1.0785    0.5954   -3.3042 H   0  0  0  0  0  0  0  0  0  0  0  0
   -1.0645    2.3296   -3.1797 H   0  0  0  0  0  0  0  0  0  0  0  0
    0.8103   -0.7245   -2.3291 H   0  0  0  0  0  0  0  0  0  0  0  0
    0.4808   -0.1412   -0.7213 H   0  0  0  0  0  0  0  0  0  0  0  0
    2.2369    0.7368    0.6562 H   0  0  0  0  0  0  0  0  0  0  0  0
    2.8414    1.9011   -0.5302 H   0  0  0  0  0  0  0  0  0  0  0  0
    3.0469   -0.6368   -3.2380 H   0  0  0  0  0  0  0  0  0  0  0  0
    3.3383    1.0697   -2.8848 H   0  0  0  0  0  0  0  0  0  0  0  0
    6.4632   -1.7919   -0.2155 H   0  0  0  0  0  0  0  0  0  0  0  0
   -5.3747    2.3407   -0.8432 H   0  0  0  0  0  0  0  0  0  0  0  0
   -6.8453    1.2735    3.3896 H   0  0  0  0  0  0  0  0  0  0  0  0
   -5.3550    1.4506    4.3010 H   0  0  0  0  0  0  0  0  0  0  0  0
    5.2729    1.6622   -1.3222 H   0  0  0  0  0  0  0  0  0  0  0  0
   -4.2693   -1.2606   -0.0936 H   0  0  0  0  0  0  0  0  0  0  0  0
    9.4801   -4.5566    1.1385 H   0  0  0  0  0  0  0  0  0  0  0  0
   -1.8081   -0.7736   -2.2627 H   0  0  0  0  0  0  0  0  0  0  0  0
   -2.2092    2.7565    2.0127 H   0  0  0  0  0  0  0  0  0  0  0  0
  1 19  1  0
  2 43  1  0
  3 44  1  0
  4  6  2  0
  4  7  1  0
  5 12  1  0
  5 13  1  0
  6 21  1  0
  7 23  2  0
  8  9  2  0
  8 22  1  0
  9 24  1  0
 10 14  1  0
 10 20  1  0
 11 15  1  0
 11 20  1  0
 12 34  1  0
 13 37  1  0
 14 37  1  0
 15 37  1  0
 16 21  2  0
 16 23  1  0
 17 22  2  0
 17 25  1  0
 18 26  1  0
 18 43  1  0
 19 35  2  3
 19 39  1  0
 20 21  1  0
 22 28  1  0
 23 35  1  0
 24 25  2  0
 24 32  1  0
 25 33  1  0
 26 27  2  0
 26 36  1  0
 27 28  1  0
 27 29  1  0
 28 38  1  0
 29 40  2  0
 29 44  1  0
 30 34  2  3
 30 38  1  0
 30 41  1  0
 31 36  2  0
 31 38  1  0
 31 42  1  0
  1 45  1  0
  1 46  1  0
  1 47  1  0
  2 48  1  0
  2 49  1  0
  2 50  1  0
  3 51  1  0
  3 52  1  0
  3 53  1  0
  4 54  1  0
  5 55  1  0
  5 56  1  0
  6 57  1  0
  7 58  1  0
  8 59  1  0
  9 60  1  0
 10 61  1  0
 10 62  1  0
 11 63  1  0
 11 64  1  0
 12 65  1  0
 12 66  1  0
 13 67  1  0
 13 68  1  0
 14 69  1  0
 14 70  1  0
 15 71  1  0
 15 72  1  0
 16 73  1  0
 17 74  1  0
 18 75  1  0
 18 76  1  0
 20 77  1  0
 28 78  1  0
 39 79  1  0
 41 80  1  0
 42 81  1  0
M  END
