
     RDKit          3D

 78 80  0  0  0  0  0  0  0  0999 V2000
  -10.4881   -0.0398    2.7183 C   0  0  0  0  0  0  0  0  0  0  0  0
   -9.0834    0.2716    2.2224 C   0  0  0  0  0  0  0  0  0  0  0  0
   -8.7381   -0.5393    0.9728 C   0  0  0  0  0  0  0  0  0  0  0  0
   -7.3471   -0.1811    0.4427 C   0  0  0  0  0  0  0  0  0  0  0  0
   -6.9911   -1.0201   -0.7865 C   0  0  0  0  0  0  0  0  0  0  0  0
   -5.7003   -0.5691   -1.4742 C   0  0  0  0  0  0  0  0  0  0  0  0
   -4.4380   -0.5890   -0.6083 C   0  0  0  0  0  0  0  0  0  0  0  0
   -4.0770   -1.9879   -0.0917 C   0  0  0  0  0  0  0  0  0  0  0  0
    5.7641   -0.6619   -0.7558 C   0  0  0  0  0  0  0  0  0  0  0  0
    7.1026   -0.1122   -1.2429 C   0  0  0  0  0  0  0  0  0  0  0  0
   -2.7611   -2.0002    0.6895 C   0  0  0  0  0  0  0  0  0  0  0  0
    9.5904    0.9528    1.5136 C   0  0  0  0  0  0  0  0  0  0  0  0
    8.8459   -1.2793    0.9373 C   0  0  0  0  0  0  0  0  0  0  0  0
   -0.0847    0.7435   -2.5162 C   0  0  0  0  0  0  0  0  0  0  0  0
   -0.9860    1.8341   -0.5707 C   0  0  0  0  0  0  0  0  0  0  0  0
   -0.6888    1.7076   -3.3316 C   0  0  0  0  0  0  0  0  0  0  0  0
   -1.5924    2.7971   -1.3824 C   0  0  0  0  0  0  0  0  0  0  0  0
   10.5074    0.4182    2.4207 C   0  0  0  0  0  0  0  0  0  0  0  0
    9.7640   -1.8109    1.8479 C   0  0  0  0  0  0  0  0  0  0  0  0
    1.2497    0.4012    0.9432 C   0  0  0  0  0  0  0  0  0  0  0  0
    1.3527   -1.3239   -0.8230 C   0  0  0  0  0  0  0  0  0  0  0  0
    4.7136    0.4407   -0.5499 C   0  0  0  0  0  0  0  0  0  0  0  0
    2.5784    0.9591    0.4424 C   0  0  0  0  0  0  0  0  0  0  0  0
    2.7056   -0.7505   -1.2548 C   0  0  0  0  0  0  0  0  0  0  0  0
    8.7557    0.1084    0.7615 C   0  0  0  0  0  0  0  0  0  0  0  0
   -0.1995    0.7959   -1.1157 C   0  0  0  0  0  0  0  0  0  0  0  0
   -1.4357    2.7322   -2.7618 C   0  0  0  0  0  0  0  0  0  0  0  0
   10.5855   -0.9593    2.5785 C   0  0  0  0  0  0  0  0  0  0  0  0
    7.8075    0.7390   -0.2066 C   0  0  0  0  0  0  0  0  0  0  0  0
   -1.5778   -1.6671   -0.1875 C   0  0  0  0  0  0  0  0  0  0  0  0
    0.4223   -0.2652   -0.1856 C   0  0  0  0  0  0  0  0  0  0  0  0
   -2.1872    3.9095   -3.7636 Cl  0  0  0  0  0  0  0  0  0  0  0  0
   11.4682   -1.4760    3.4434 F   0  0  0  0  0  0  0  0  0  0  0  0
    3.4088   -0.1116   -0.1331 N   0  0  0  0  0  0  0  0  0  0  0  0
    7.6157    1.9529   -0.1598 O   0  0  0  0  0  0  0  0  0  0  0  0
   -1.4608   -2.0267   -1.3497 O   0  0  0  0  0  0  0  0  0  0  0  0
   -0.6874   -0.9116    0.5130 O   0  0  0  0  0  0  0  0  0  0  0  0
  -10.6037   -1.1073    2.9287 H   0  0  0  0  0  0  0  0  0  0  0  0
  -11.2371    0.2491    1.9738 H   0  0  0  0  0  0  0  0  0  0  0  0
  -10.6954    0.5129    3.6399 H   0  0  0  0  0  0  0  0  0  0  0  0
   -8.3626    0.0486    3.0189 H   0  0  0  0  0  0  0  0  0  0  0  0
   -9.0080    1.3442    2.0064 H   0  0  0  0  0  0  0  0  0  0  0  0
   -8.7779   -1.6106    1.2083 H   0  0  0  0  0  0  0  0  0  0  0  0
   -9.4867   -0.3494    0.1927 H   0  0  0  0  0  0  0  0  0  0  0  0
   -7.3200    0.8842    0.1814 H   0  0  0  0  0  0  0  0  0  0  0  0
   -6.6070   -0.3444    1.2355 H   0  0  0  0  0  0  0  0  0  0  0  0
   -7.8056   -0.9516   -1.5190 H   0  0  0  0  0  0  0  0  0  0  0  0
   -6.9210   -2.0777   -0.5073 H   0  0  0  0  0  0  0  0  0  0  0  0
   -5.5381   -1.2029   -2.3548 H   0  0  0  0  0  0  0  0  0  0  0  0
   -5.8425    0.4499   -1.8533 H   0  0  0  0  0  0  0  0  0  0  0  0
   -4.5438    0.1033    0.2344 H   0  0  0  0  0  0  0  0  0  0  0  0
   -3.6162   -0.2000   -1.2211 H   0  0  0  0  0  0  0  0  0  0  0  0
   -4.0160   -2.6879   -0.9336 H   0  0  0  0  0  0  0  0  0  0  0  0
   -4.8695   -2.3505    0.5724 H   0  0  0  0  0  0  0  0  0  0  0  0
    5.8973   -1.2128    0.1827 H   0  0  0  0  0  0  0  0  0  0  0  0
    5.4202   -1.3837   -1.5039 H   0  0  0  0  0  0  0  0  0  0  0  0
    7.7606   -0.9290   -1.5595 H   0  0  0  0  0  0  0  0  0  0  0  0
    6.9582    0.5048   -2.1395 H   0  0  0  0  0  0  0  0  0  0  0  0
   -2.8248   -1.2788    1.5126 H   0  0  0  0  0  0  0  0  0  0  0  0
   -2.5859   -2.9906    1.1226 H   0  0  0  0  0  0  0  0  0  0  0  0
    9.5382    2.0319    1.3859 H   0  0  0  0  0  0  0  0  0  0  0  0
    8.2148   -1.9701    0.3839 H   0  0  0  0  0  0  0  0  0  0  0  0
    0.4508   -0.0620   -3.0104 H   0  0  0  0  0  0  0  0  0  0  0  0
   -1.1594    1.8900    0.5033 H   0  0  0  0  0  0  0  0  0  0  0  0
   -0.5814    1.6393   -4.4108 H   0  0  0  0  0  0  0  0  0  0  0  0
   -2.1921    3.5833   -0.9323 H   0  0  0  0  0  0  0  0  0  0  0  0
   11.1616    1.0655    2.9961 H   0  0  0  0  0  0  0  0  0  0  0  0
    9.8510   -2.8859    1.9869 H   0  0  0  0  0  0  0  0  0  0  0  0
    0.6896    1.1912    1.4570 H   0  0  0  0  0  0  0  0  0  0  0  0
    1.4474   -0.3448    1.7284 H   0  0  0  0  0  0  0  0  0  0  0  0
    0.8921   -1.8194   -1.6828 H   0  0  0  0  0  0  0  0  0  0  0  0
    1.5248   -2.1284   -0.0947 H   0  0  0  0  0  0  0  0  0  0  0  0
    5.0857    1.1069    0.2395 H   0  0  0  0  0  0  0  0  0  0  0  0
    4.6101    1.0496   -1.4567 H   0  0  0  0  0  0  0  0  0  0  0  0
    3.0973    1.4019    1.3022 H   0  0  0  0  0  0  0  0  0  0  0  0
    2.4104    1.7655   -0.2834 H   0  0  0  0  0  0  0  0  0  0  0  0
    2.5767   -0.0400   -2.0780 H   0  0  0  0  0  0  0  0  0  0  0  0
    3.2943   -1.5853   -1.6483 H   0  0  0  0  0  0  0  0  0  0  0  0
  1  2  1  0
  2  3  1  0
  3  4  1  0
  4  5  1  0
  5  6  1  0
  6  7  1  0
  7  8  1  0
  8 11  1  0
  9 10  1  0
  9 22  1  0
 10 29  1  0
 11 30  1  0
 12 18  2  0
 12 25  1  0
 13 19  1  0
 13 25  2  0
 14 16  2  0
 14 26  1  0
 15 17  1  0
 15 26  2  0
 16 27  1  0
 17 27  2  0
 18 28  1  0
 19 28  2  0
 20 23  1  0
 20 31  1  0
 21 24  1  0
 21 31  1  0
 22 34  1  0
 23 34  1  0
 24 34  1  0
 25 29  1  0
 26 31  1  0
 27 32  1  0
 28 33  1  0
 29 35  2  0
 30 36  2  0
 30 37  1  0
 31 37  1  0
  1 38  1  0
  1 39  1  0
  1 40  1  0
  2 41  1  0
  2 42  1  0
  3 43  1  0
  3 44  1  0
  4 45  1  0
  4 46  1  0
  5 47  1  0
  5 48  1  0
  6 49  1  0
  6 50  1  0
  7 51  1  0
  7 52  1  0
  8 53  1  0
  8 54  1  0
  9 55  1  0
  9 56  1  0
 10 57  1  0
 10 58  1  0
 11 59  1  0
 11 60  1  0
 12 61  1  0
 13 62  1  0
 14 63  1  0
 15 64  1  0
 16 65  1  0
 17 66  1  0
 18 67  1  0
 19 68  1  0
 20 69  1  0
 20 70  1  0
 21 71  1  0
 21 72  1  0
 22 73  1  0
 22 74  1  0
 23 75  1  0
 23 76  1  0
 24 77  1  0
 24 78  1  0
M  END
