
     RDKit          3D

 83 89  0  0  0  0  0  0  0  0999 V2000
   -6.6671   -0.1260    3.2514 C   0  0  0  0  0  0  0  0  0  0  0  0
   -5.2164    1.9119    3.2263 C   0  0  0  0  0  0  0  0  0  0  0  0
   -0.1230   -3.0719    0.8072 C   0  0  0  0  0  0  0  0  0  0  0  0
   -0.5125   -3.4607   -1.6270 C   0  0  0  0  0  0  0  0  0  0  0  0
    4.2026    2.5268   -1.7746 C   0  0  0  0  0  0  0  0  0  0  0  0
    6.5239   -2.9626    1.7697 C   0  0  0  0  0  0  0  0  0  0  0  0
   -5.7524    0.5561   -3.9998 C   0  0  0  0  0  0  0  0  0  0  0  0
    5.4506   -2.2484    1.2179 C   0  0  0  0  0  0  0  0  0  0  0  0
    7.7717   -2.3628    1.9950 C   0  0  0  0  0  0  0  0  0  0  0  0
   -4.3388    0.0352   -3.7375 C   0  0  0  0  0  0  0  0  0  0  0  0
   -5.9649    1.5491   -2.8642 C   0  0  0  0  0  0  0  0  0  0  0  0
   -4.9263    0.0949    1.4547 C   0  0  0  0  0  0  0  0  0  0  0  0
    3.4108   -0.4537   -0.2053 C   0  0  0  0  0  0  0  0  0  0  0  0
    6.3459    1.9718    0.1795 C   0  0  0  0  0  0  0  0  0  0  0  0
    8.5869    1.0985    1.2369 C   0  0  0  0  0  0  0  0  0  0  0  0
    2.5091    1.9138   -0.1495 C   0  0  0  0  0  0  0  0  0  0  0  0
   -5.9120    0.8635    2.3579 C   0  0  0  0  0  0  0  0  0  0  0  0
   -1.0159   -2.7100   -0.3833 C   0  0  0  0  0  0  0  0  0  0  0  0
    7.2765    1.0093    0.8299 C   0  0  0  0  0  0  0  0  0  0  0  0
    2.2933    0.4667   -0.6314 C   0  0  0  0  0  0  0  0  0  0  0  0
    5.5899   -0.8995    0.8626 C   0  0  0  0  0  0  0  0  0  0  0  0
    4.5609    0.0191    0.3139 C   0  0  0  0  0  0  0  0  0  0  0  0
    7.8966   -1.0177    1.6423 C   0  0  0  0  0  0  0  0  0  0  0  0
    4.8452    1.5529    0.4166 C   0  0  0  0  0  0  0  0  0  0  0  0
   -4.0915    0.9511    0.4788 C   0  0  0  0  0  0  0  0  0  0  0  0
   -4.3034   -0.0767   -2.2113 C   0  0  0  0  0  0  0  0  0  0  0  0
    6.8415   -0.3088    1.0899 C   0  0  0  0  0  0  0  0  0  0  0  0
    0.9640   -0.0796   -0.1215 C   0  0  0  0  0  0  0  0  0  0  0  0
   -5.0406    1.6381   -0.5543 C   0  0  0  0  0  0  0  0  0  0  0  0
   -1.9740   -0.4638    0.4420 C   0  0  0  0  0  0  0  0  0  0  0  0
   -1.1724   -1.1891   -0.6553 C   0  0  0  0  0  0  0  0  0  0  0  0
   -2.9160    0.0423   -1.5538 C   0  0  0  0  0  0  0  0  0  0  0  0
    8.9513   -0.1350    1.7311 N   0  0  0  0  0  0  0  0  0  0  0  0
    0.1123   -0.5618   -0.9415 N   0  0  0  0  0  0  0  0  0  0  0  0
    3.8874    2.4102   -0.3513 N   0  0  0  0  0  0  0  0  0  0  0  0
   -5.2022    0.9905   -1.7671 N   0  0  0  0  0  0  0  0  0  0  0  0
   -3.0661    0.1036   -0.1507 N   0  0  0  0  0  0  0  0  0  0  0  0
    0.8528   -0.0306    1.2170 O   0  0  0  0  0  0  0  0  0  0  0  0
   -5.6911    2.6435   -0.2701 O   0  0  0  0  0  0  0  0  0  0  0  0
   -1.6751   -0.3988    1.6270 O   0  0  0  0  0  0  0  0  0  0  0  0
   -2.2295    1.2076   -1.9508 O   0  0  0  0  0  0  0  0  0  0  0  0
   -2.0983   -1.0843   -1.7818 O   0  0  0  0  0  0  0  0  0  0  0  0
   -7.1989   -0.8688    2.6476 H   0  0  0  0  0  0  0  0  0  0  0  0
   -7.4080    0.3937    3.8682 H   0  0  0  0  0  0  0  0  0  0  0  0
   -5.9831   -0.6591    3.9209 H   0  0  0  0  0  0  0  0  0  0  0  0
   -4.4104    1.4659    3.8182 H   0  0  0  0  0  0  0  0  0  0  0  0
   -4.7899    2.7146    2.6181 H   0  0  0  0  0  0  0  0  0  0  0  0
   -5.9265    2.3756    3.9195 H   0  0  0  0  0  0  0  0  0  0  0  0
   -0.4719   -2.6095    1.7335 H   0  0  0  0  0  0  0  0  0  0  0  0
   -0.1313   -4.1557    0.9723 H   0  0  0  0  0  0  0  0  0  0  0  0
    0.9182   -2.7803    0.6402 H   0  0  0  0  0  0  0  0  0  0  0  0
   -0.4574   -4.5374   -1.4324 H   0  0  0  0  0  0  0  0  0  0  0  0
   -1.1838   -3.3206   -2.4797 H   0  0  0  0  0  0  0  0  0  0  0  0
    0.4871   -3.1231   -1.9202 H   0  0  0  0  0  0  0  0  0  0  0  0
    5.0909    3.1482   -1.9249 H   0  0  0  0  0  0  0  0  0  0  0  0
    4.3670    1.5603   -2.2624 H   0  0  0  0  0  0  0  0  0  0  0  0
    3.3962    3.0429   -2.3088 H   0  0  0  0  0  0  0  0  0  0  0  0
    6.3824   -4.0076    2.0390 H   0  0  0  0  0  0  0  0  0  0  0  0
   -6.4711   -0.2682   -3.9200 H   0  0  0  0  0  0  0  0  0  0  0  0
   -5.8625    1.0145   -4.9862 H   0  0  0  0  0  0  0  0  0  0  0  0
    4.5002   -2.7586    1.0907 H   0  0  0  0  0  0  0  0  0  0  0  0
    8.5937   -2.9220    2.4276 H   0  0  0  0  0  0  0  0  0  0  0  0
   -3.6122    0.7661   -4.1096 H   0  0  0  0  0  0  0  0  0  0  0  0
   -4.1443   -0.9218   -4.2303 H   0  0  0  0  0  0  0  0  0  0  0  0
   -5.5485    2.5327   -3.1089 H   0  0  0  0  0  0  0  0  0  0  0  0
   -7.0148    1.6654   -2.5815 H   0  0  0  0  0  0  0  0  0  0  0  0
   -5.4904   -0.6494    0.8753 H   0  0  0  0  0  0  0  0  0  0  0  0
   -4.2525   -0.4826    2.1008 H   0  0  0  0  0  0  0  0  0  0  0  0
    3.2252   -1.5180   -0.3085 H   0  0  0  0  0  0  0  0  0  0  0  0
    6.5908    1.9705   -0.8888 H   0  0  0  0  0  0  0  0  0  0  0  0
    6.5120    2.9857    0.5621 H   0  0  0  0  0  0  0  0  0  0  0  0
    9.2959    1.9152    1.2121 H   0  0  0  0  0  0  0  0  0  0  0  0
    2.2675    2.0146    0.9173 H   0  0  0  0  0  0  0  0  0  0  0  0
    1.7961    2.5780   -0.6560 H   0  0  0  0  0  0  0  0  0  0  0  0
   -6.6581    1.3691    1.7349 H   0  0  0  0  0  0  0  0  0  0  0  0
   -2.0164   -3.1101   -0.1652 H   0  0  0  0  0  0  0  0  0  0  0  0
    2.2545    0.4535   -1.7288 H   0  0  0  0  0  0  0  0  0  0  0  0
    4.6537    1.7897    1.4763 H   0  0  0  0  0  0  0  0  0  0  0  0
   -3.5438    1.7374    1.0087 H   0  0  0  0  0  0  0  0  0  0  0  0
   -4.7765   -1.0227   -1.9137 H   0  0  0  0  0  0  0  0  0  0  0  0
    9.8642   -0.3676    2.0973 H   0  0  0  0  0  0  0  0  0  0  0  0
   -0.0186   -0.2891    1.5722 H   0  0  0  0  0  0  0  0  0  0  0  0
   -1.8086    0.9640   -2.7923 H   0  0  0  0  0  0  0  0  0  0  0  0
  1 17  1  0
  2 17  1  0
  3 18  1  0
  4 18  1  0
  5 35  1  0
  6  8  2  0
  6  9  1  0
  7 10  1  0
  7 11  1  0
  8 21  1  0
  9 23  2  0
 10 26  1  0
 11 36  1  0
 12 17  1  0
 12 25  1  0
 13 20  1  0
 13 22  2  0
 14 19  1  0
 14 24  1  0
 15 19  2  0
 15 33  1  0
 16 20  1  0
 16 35  1  0
 18 31  1  0
 19 27  1  0
 20 28  1  0
 21 22  1  0
 21 27  2  0
 22 24  1  0
 23 27  1  0
 23 33  1  0
 24 35  1  0
 25 29  1  0
 25 37  1  0
 26 32  1  0
 26 36  1  0
 28 34  2  3
 28 38  1  0
 29 36  1  0
 29 39  2  0
 30 31  1  0
 30 37  1  0
 30 40  2  0
 31 34  1  0
 31 42  1  0
 32 37  1  0
 32 41  1  0
 32 42  1  0
  1 43  1  0
  1 44  1  0
  1 45  1  0
  2 46  1  0
  2 47  1  0
  2 48  1  0
  3 49  1  0
  3 50  1  0
  3 51  1  0
  4 52  1  0
  4 53  1  0
  4 54  1  0
  5 55  1  0
  5 56  1  0
  5 57  1  0
  6 58  1  0
  7 59  1  0
  7 60  1  0
  8 61  1  0
  9 62  1  0
 10 63  1  0
 10 64  1  0
 11 65  1  0
 11 66  1  0
 12 67  1  0
 12 68  1  0
 13 69  1  0
 14 70  1  0
 14 71  1  0
 15 72  1  0
 16 73  1  0
 16 74  1  0
 17 75  1  0
 18 76  1  0
 20 77  1  0
 24 78  1  0
 25 79  1  0
 26 80  1  0
 33 81  1  0
 38 82  1  0
 41 83  1  0
M  END
