
     RDKit          3D

 14 13  0  0  0  0  0  0  0  0999 V2000
    1.0276    0.1542   -0.6947 C   0  0  0  0  0  0  0  0  0  0  0  0
   -0.1021    0.0695    0.3378 C   0  0  0  0  0  0  0  0  0  0  0  0
   -1.4373    0.2415   -0.3757 C   0  0  0  0  0  0  0  0  0  0  0  0
   -0.0606   -1.2210    1.0721 N   0  0  0  0  0  0  0  0  0  0  0  0
    2.2897   -0.1370   -0.0873 O   0  0  0  0  0  0  0  0  0  0  0  0
   -2.1905   -0.6470   -0.7436 O   0  0  0  0  0  0  0  0  0  0  0  0
   -1.7335    1.5334   -0.6261 O   0  0  0  0  0  0  0  0  0  0  0  0
    0.8771   -0.5650   -1.5076 H   0  0  0  0  0  0  0  0  0  0  0  0
    1.0818    1.1528   -1.1412 H   0  0  0  0  0  0  0  0  0  0  0  0
    0.0100    0.8574    1.0903 H   0  0  0  0  0  0  0  0  0  0  0  0
   -0.4938   -1.9355    0.4800 H   0  0  0  0  0  0  0  0  0  0  0  0
    0.9217   -1.5015    1.1443 H   0  0  0  0  0  0  0  0  0  0  0  0
    2.4226    0.5062    0.6317 H   0  0  0  0  0  0  0  0  0  0  0  0
   -2.6128    1.4922   -1.0597 H   0  0  0  0  0  0  0  0  0  0  0  0
  1  2  1  0
  1  5  1  0
  2  3  1  0
  2  4  1  0
  3  6  2  0
  3  7  1  0
  1  8  1  0
  1  9  1  0
  2 10  1  0
  4 11  1  0
  4 12  1  0
  5 13  1  0
  7 14  1  0
M  END
