
     RDKit          3D

 16 15  0  0  0  0  0  0  0  0999 V2000
   -2.4090    0.3603   -0.5752 C   0  0  0  0  0  0  0  0  0  0  0  0
   -1.1479    0.6230    0.2321 C   0  0  0  0  0  0  0  0  0  0  0  0
   -0.0037   -0.2869   -0.2061 C   0  0  0  0  0  0  0  0  0  0  0  0
    1.2644   -0.0271    0.6012 C   0  0  0  0  0  0  0  0  0  0  0  0
    3.4746   -0.6784    0.8825 N   0  0  0  0  0  0  0  0  0  0  0  0
    4.3819   -1.4270    0.5076 O   0  0  0  0  0  0  0  0  0  0  0  0
    2.2788   -0.9121    0.1329 O   0  0  0  0  0  0  0  0  0  0  0  0
   -2.7462   -0.6737   -0.4507 H   0  0  0  0  0  0  0  0  0  0  0  0
   -2.2370    0.5399   -1.6412 H   0  0  0  0  0  0  0  0  0  0  0  0
   -3.2154    1.0226   -0.2449 H   0  0  0  0  0  0  0  0  0  0  0  0
   -0.8560    1.6728    0.1116 H   0  0  0  0  0  0  0  0  0  0  0  0
   -1.3624    0.4659    1.2955 H   0  0  0  0  0  0  0  0  0  0  0  0
   -0.2931   -1.3398   -0.0981 H   0  0  0  0  0  0  0  0  0  0  0  0
    0.2093   -0.1423   -1.2727 H   0  0  0  0  0  0  0  0  0  0  0  0
    1.5874    1.0128    0.4667 H   0  0  0  0  0  0  0  0  0  0  0  0
    1.0743   -0.2100    1.6662 H   0  0  0  0  0  0  0  0  0  0  0  0
  1  2  1  0
  2  3  1  0
  3  4  1  0
  4  7  1  0
  5  6  2  0
  5  7  1  0
  1  8  1  0
  1  9  1  0
  1 10  1  0
  2 11  1  0
  2 12  1  0
  3 13  1  0
  3 14  1  0
  4 15  1  0
  4 16  1  0
M  END
