
     RDKit          3D

 16 15  0  0  0  0  0  0  0  0999 V2000
   -1.5557    0.8713    0.6606 C   0  0  0  0  0  0  0  0  0  0  0  0
   -0.7940   -0.4820   -1.3107 C   0  0  0  0  0  0  0  0  0  0  0  0
    0.8668    0.2235    0.4649 C   0  0  0  0  0  0  0  0  0  0  0  0
   -0.5802   -0.2003    0.1782 C   0  0  0  0  0  0  0  0  0  0  0  0
    3.0919   -0.4362    0.3794 N   0  0  0  0  0  0  0  0  0  0  0  0
    3.8877   -1.3340    0.0884 O   0  0  0  0  0  0  0  0  0  0  0  0
    1.7459   -0.8447    0.1191 O   0  0  0  0  0  0  0  0  0  0  0  0
   -2.5915    0.5618    0.4858 H   0  0  0  0  0  0  0  0  0  0  0  0
   -1.4376    1.0495    1.7347 H   0  0  0  0  0  0  0  0  0  0  0  0
   -1.3932    1.8210    0.1395 H   0  0  0  0  0  0  0  0  0  0  0  0
   -0.5820    0.4055   -1.9166 H   0  0  0  0  0  0  0  0  0  0  0  0
   -1.8293   -0.7832   -1.5031 H   0  0  0  0  0  0  0  0  0  0  0  0
   -0.1446   -1.2923   -1.6576 H   0  0  0  0  0  0  0  0  0  0  0  0
    0.9790    0.4527    1.5325 H   0  0  0  0  0  0  0  0  0  0  0  0
    1.1213    1.1194   -0.1165 H   0  0  0  0  0  0  0  0  0  0  0  0
   -0.7846   -1.1319    0.7212 H   0  0  0  0  0  0  0  0  0  0  0  0
  1  4  1  0
  2  4  1  0
  3  4  1  0
  3  7  1  0
  5  6  2  0
  5  7  1  0
  1  8  1  0
  1  9  1  0
  1 10  1  0
  2 11  1  0
  2 12  1  0
  2 13  1  0
  3 14  1  0
  3 15  1  0
  4 16  1  0
M  END
