
     RDKit          3D

 17 17  0  0  0  0  0  0  0  0999 V2000
    1.2096    1.1397    0.1856 C   0  0  0  0  0  0  0  0  0  0  0  0
   -0.0659    1.6864   -0.0036 C   0  0  0  0  0  0  0  0  0  0  0  0
    0.2642   -1.1061    0.2155 C   0  0  0  0  0  0  0  0  0  0  0  0
    1.3693   -0.2522    0.2963 C   0  0  0  0  0  0  0  0  0  0  0  0
   -0.9984   -0.5354    0.0190 C   0  0  0  0  0  0  0  0  0  0  0  0
   -1.1766    0.8466   -0.0850 C   0  0  0  0  0  0  0  0  0  0  0  0
    2.7111   -0.8155    0.4971 N   0  0  0  0  0  4  0  0  0  0  0  0
   -2.1387   -1.4222   -0.0739 N   0  0  0  0  0  4  0  0  0  0  0  0
   -2.4213    1.3788   -0.2412 O   0  0  0  0  0  0  0  0  0  0  0  0
    3.6556   -0.0226    0.6106 O   0  0  0  0  0  1  0  0  0  0  0  0
    2.8141   -2.0486    0.5383 O   0  0  0  0  0  0  0  0  0  0  0  0
   -2.4151   -2.0787    0.9395 O   0  0  0  0  0  1  0  0  0  0  0  0
   -2.7069   -1.5046   -1.1704 O   0  0  0  0  0  0  0  0  0  0  0  0
    2.0663    1.8101    0.2481 H   0  0  0  0  0  0  0  0  0  0  0  0
   -0.1705    2.7664   -0.0780 H   0  0  0  0  0  0  0  0  0  0  0  0
    0.3708   -2.1860    0.3007 H   0  0  0  0  0  0  0  0  0  0  0  0
   -2.3675    2.3438   -0.3533 H   0  0  0  0  0  0  0  0  0  0  0  0
  1  2  2  0
  1  4  1  0
  2  6  1  0
  3  4  2  0
  3  5  1  0
  4  7  1  0
  5  6  2  0
  5  8  1  0
  6  9  1  0
  7 10  1  0
  7 11  2  0
  8 12  1  0
  8 13  2  0
  1 14  1  0
  2 15  1  0
  3 16  1  0
  9 17  1  0
M  CHG  4   7   1   8   1  10  -1  12  -1
M  END
