
     RDKit          3D

 18 19  0  0  0  0  0  0  0  0999 V2000
    1.1363   -0.9713   -0.8113 C   0  0  0  0  0  0  0  0  0  0  0  0
    2.0902   -0.4030    0.2352 C   0  0  0  0  0  0  0  0  0  0  0  0
   -1.2356    1.0088    0.8167 C   0  0  0  0  0  0  0  0  0  0  0  0
    0.1009    0.1258   -0.9611 C   0  0  0  0  0  0  0  0  0  0  0  0
   -1.9076    0.1225   -0.1787 C   0  0  0  0  0  0  0  0  0  0  0  0
    1.1501    0.3988    1.0985 C   0  0  0  0  0  0  0  0  0  0  0  0
   -1.2532   -0.4024   -1.1643 N   0  0  0  0  0  0  0  0  0  0  0  0
    0.0880    0.7913    0.3012 N   0  0  0  0  0  0  0  0  0  0  0  0
   -3.2081   -0.1174   -0.0430 O   0  0  0  0  0  0  0  0  0  0  0  0
    1.2989    0.6430    2.2832 O   0  0  0  0  0  0  0  0  0  0  0  0
    1.6381   -1.2091   -1.7539 H   0  0  0  0  0  0  0  0  0  0  0  0
    0.6818   -1.8969   -0.4350 H   0  0  0  0  0  0  0  0  0  0  0  0
    2.8366    0.2649   -0.2050 H   0  0  0  0  0  0  0  0  0  0  0  0
    2.5765   -1.1952    0.8090 H   0  0  0  0  0  0  0  0  0  0  0  0
   -1.3523    0.6507    1.8404 H   0  0  0  0  0  0  0  0  0  0  0  0
   -1.5289    2.0504    0.6789 H   0  0  0  0  0  0  0  0  0  0  0  0
    0.3646    0.8470   -1.7430 H   0  0  0  0  0  0  0  0  0  0  0  0
   -3.4764   -0.7078   -0.7678 H   0  0  0  0  0  0  0  0  0  0  0  0
  1  2  1  0
  1  4  1  0
  2  6  1  0
  3  5  1  0
  3  8  1  0
  4  7  1  0
  4  8  1  0
  5  7  2  0
  5  9  1  0
  6  8  1  0
  6 10  2  0
  1 11  1  0
  1 12  1  0
  2 13  1  0
  2 14  1  0
  3 15  1  0
  3 16  1  0
  4 17  1  0
  9 18  1  0
M  END
