
     RDKit          3D

 15 15  0  0  0  0  0  0  0  0999 V2000
   -0.3997   -1.1698   -0.0053 C   0  0  0  0  0  0  0  0  0  0  0  0
   -0.4776    1.2572    0.0078 C   0  0  0  0  0  0  0  0  0  0  0  0
    0.9960   -1.1279   -0.0083 C   0  0  0  0  0  0  0  0  0  0  0  0
    0.9177    1.2947    0.0047 C   0  0  0  0  0  0  0  0  0  0  0  0
   -2.6086   -0.0146    0.0061 C   0  0  0  0  0  0  0  0  0  0  0  0
   -1.1326    0.0222    0.0028 C   0  0  0  0  0  0  0  0  0  0  0  0
    1.6416    0.1057   -0.0033 C   0  0  0  0  0  0  0  0  0  0  0  0
   -3.2339   -1.0677    0.0019 O   0  0  0  0  0  0  0  0  0  0  0  0
    3.0017    0.1945   -0.0060 O   0  0  0  0  0  0  0  0  0  0  0  0
   -0.9140   -2.1290   -0.0092 H   0  0  0  0  0  0  0  0  0  0  0  0
   -1.0350    2.1899    0.0141 H   0  0  0  0  0  0  0  0  0  0  0  0
    1.5549   -2.0586   -0.0146 H   0  0  0  0  0  0  0  0  0  0  0  0
    1.4416    2.2470    0.0086 H   0  0  0  0  0  0  0  0  0  0  0  0
   -3.1258    0.9595    0.0125 H   0  0  0  0  0  0  0  0  0  0  0  0
    3.3739   -0.7030   -0.0117 H   0  0  0  0  0  0  0  0  0  0  0  0
  1  3  2  0
  1  6  1  0
  2  4  1  0
  2  6  2  0
  3  7  1  0
  4  7  2  0
  5  6  1  0
  5  8  2  0
  7  9  1  0
  1 10  1  0
  2 11  1  0
  3 12  1  0
  4 13  1  0
  5 14  1  0
  9 15  1  0
M  END
