
     RDKit          3D

 16 17  0  0  0  0  0  0  0  0999 V2000
   -1.5715    1.1435   -0.2505 C   0  0  0  0  0  0  0  0  0  0  0  0
   -0.2657    1.6331   -0.1614 C   0  0  0  0  0  0  0  0  0  0  0  0
   -0.7788   -1.1477    0.0176 C   0  0  0  0  0  0  0  0  0  0  0  0
    2.6282   -0.3144    0.2868 C   0  0  0  0  0  0  0  0  0  0  0  0
   -1.8165   -0.2346   -0.1609 C   0  0  0  0  0  0  0  0  0  0  0  0
    0.7487    0.7164    0.0151 C   0  0  0  0  0  0  0  0  0  0  0  0
    0.4984   -0.6345    0.1019 C   0  0  0  0  0  0  0  0  0  0  0  0
   -3.1136   -0.6488   -0.2553 O   0  0  0  0  0  0  0  0  0  0  0  0
    2.0727    1.0066    0.1225 O   0  0  0  0  0  0  0  0  0  0  0  0
    1.6352   -1.3617    0.2748 O   0  0  0  0  0  0  0  0  0  0  0  0
   -2.4025    1.8301   -0.3897 H   0  0  0  0  0  0  0  0  0  0  0  0
   -0.0575    2.6945   -0.2284 H   0  0  0  0  0  0  0  0  0  0  0  0
   -0.9466   -2.2145    0.0891 H   0  0  0  0  0  0  0  0  0  0  0  0
    3.1657   -0.3525    1.2414 H   0  0  0  0  0  0  0  0  0  0  0  0
    3.3410   -0.4985   -0.5253 H   0  0  0  0  0  0  0  0  0  0  0  0
   -3.1371   -1.6170   -0.1776 H   0  0  0  0  0  0  0  0  0  0  0  0
  1  2  2  0
  1  5  1  0
  2  6  1  0
  3  5  2  0
  3  7  1  0
  4  9  1  0
  4 10  1  0
  5  8  1  0
  6  7  2  0
  6  9  1  0
  7 10  1  0
  1 11  1  0
  2 12  1  0
  3 13  1  0
  4 14  1  0
  4 15  1  0
  8 16  1  0
M  END
