
     RDKit          3D

 19 19  0  0  0  0  0  0  0  0999 V2000
    3.4259   -0.2615   -0.1299 C   0  0  0  0  0  0  0  0  0  0  0  0
   -2.2676    1.4001    0.3023 C   0  0  0  0  0  0  0  0  0  0  0  0
   -2.8815    0.1499    0.3644 C   0  0  0  0  0  0  0  0  0  0  0  0
   -0.9110    1.4940   -0.0113 C   0  0  0  0  0  0  0  0  0  0  0  0
   -2.1453   -1.0082    0.1037 C   0  0  0  0  0  0  0  0  0  0  0  0
   -0.1603    0.3345   -0.2546 C   0  0  0  0  0  0  0  0  0  0  0  0
   -0.7874   -0.9160   -0.2124 C   0  0  0  0  0  0  0  0  0  0  0  0
    1.2718    0.5127   -0.5767 C   0  0  0  0  0  0  0  0  0  0  0  0
   -0.0940   -2.0545   -0.5139 O   0  0  0  0  0  0  0  0  0  0  0  0
    1.6888    1.4139   -1.2886 O   0  0  0  0  0  0  0  0  0  0  0  0
    2.0244   -0.3848    0.1051 O   0  0  0  0  0  0  0  0  0  0  0  0
    3.6520   -0.3941   -1.1927 H   0  0  0  0  0  0  0  0  0  0  0  0
    3.7894    0.7077    0.2258 H   0  0  0  0  0  0  0  0  0  0  0  0
    3.9348   -1.0494    0.4323 H   0  0  0  0  0  0  0  0  0  0  0  0
   -2.8442    2.3018    0.4948 H   0  0  0  0  0  0  0  0  0  0  0  0
   -3.9393    0.0780    0.6068 H   0  0  0  0  0  0  0  0  0  0  0  0
   -0.4361    2.4719   -0.0637 H   0  0  0  0  0  0  0  0  0  0  0  0
   -2.6494   -1.9696    0.1408 H   0  0  0  0  0  0  0  0  0  0  0  0
   -0.6710   -2.8265   -0.3958 H   0  0  0  0  0  0  0  0  0  0  0  0
  1 11  1  0
  2  3  2  0
  2  4  1  0
  3  5  1  0
  4  6  2  0
  5  7  2  0
  6  7  1  0
  6  8  1  0
  7  9  1  0
  8 10  2  0
  8 11  1  0
  1 12  1  0
  1 13  1  0
  1 14  1  0
  2 15  1  0
  3 16  1  0
  4 17  1  0
  5 18  1  0
  9 19  1  0
M  END
