
     RDKit          3D

 33 32  0  0  0  0  0  0  0  0999 V2000
   -3.1711   -2.7400   -0.6601 C   0  0  0  0  0  0  0  0  0  0  0  0
    0.1391   -0.6774    1.5860 C   0  0  0  0  0  0  0  0  0  0  0  0
   -2.3834   -1.6219    0.0095 C   0  0  0  0  0  0  0  0  0  0  0  0
   -0.9583   -1.5387   -0.5495 C   0  0  0  0  0  0  0  0  0  0  0  0
    1.3484   -0.5772   -0.6315 C   0  0  0  0  0  0  0  0  0  0  0  0
   -0.6320    0.9611   -0.1798 C   0  0  0  0  0  0  0  0  0  0  0  0
    3.5827    0.2848   -0.5379 C   0  0  0  0  0  0  0  0  0  0  0  0
   -0.1892    3.2526    0.1402 C   0  0  0  0  0  0  0  0  0  0  0  0
   -0.0337   -0.4473    0.0716 C   0  0  0  0  0  0  0  0  0  0  0  0
    4.0518   -0.3443   -1.5468 N   0  0  0  0  0  0  0  0  0  0  0  0
   -1.2067    3.6071   -0.5496 N   0  0  0  0  0  0  0  0  0  0  0  0
    4.3868    1.0967    0.1464 O   0  0  0  0  0  0  0  0  0  0  0  0
    0.6336    4.1304    0.7176 O   0  0  0  0  0  0  0  0  0  0  0  0
    2.3449    0.2548   -0.0230 O   0  0  0  0  0  0  0  0  0  0  0  0
    0.1937    1.9885    0.3838 O   0  0  0  0  0  0  0  0  0  0  0  0
   -3.2467   -2.5747   -1.7396 H   0  0  0  0  0  0  0  0  0  0  0  0
   -2.6943   -3.7110   -0.4927 H   0  0  0  0  0  0  0  0  0  0  0  0
   -4.1857   -2.7853   -0.2518 H   0  0  0  0  0  0  0  0  0  0  0  0
   -0.8043   -0.5379    2.1239 H   0  0  0  0  0  0  0  0  0  0  0  0
    0.4953   -1.6935    1.7888 H   0  0  0  0  0  0  0  0  0  0  0  0
    0.8602    0.0186    2.0277 H   0  0  0  0  0  0  0  0  0  0  0  0
   -2.3633   -1.8100    1.0876 H   0  0  0  0  0  0  0  0  0  0  0  0
   -2.9171   -0.6805   -0.1526 H   0  0  0  0  0  0  0  0  0  0  0  0
   -0.4827   -2.5204   -0.4182 H   0  0  0  0  0  0  0  0  0  0  0  0
   -1.0200   -1.3744   -1.6340 H   0  0  0  0  0  0  0  0  0  0  0  0
    1.2504   -0.3039   -1.6896 H   0  0  0  0  0  0  0  0  0  0  0  0
    1.6954   -1.6164   -0.5696 H   0  0  0  0  0  0  0  0  0  0  0  0
   -0.7359    1.1270   -1.2597 H   0  0  0  0  0  0  0  0  0  0  0  0
   -1.6210    1.0405    0.2850 H   0  0  0  0  0  0  0  0  0  0  0  0
    3.3306   -0.9270   -1.9689 H   0  0  0  0  0  0  0  0  0  0  0  0
   -1.2844    4.6219   -0.5859 H   0  0  0  0  0  0  0  0  0  0  0  0
    5.2503    1.0584   -0.2920 H   0  0  0  0  0  0  0  0  0  0  0  0
    0.3665    5.0394    0.5386 H   0  0  0  0  0  0  0  0  0  0  0  0
  1  3  1  0
  2  9  1  0
  3  4  1  0
  4  9  1  0
  5  9  1  0
  5 14  1  0
  6  9  1  0
  6 15  1  0
  7 10  2  3
  7 12  1  0
  7 14  1  0
  8 11  2  3
  8 13  1  0
  8 15  1  0
  1 16  1  0
  1 17  1  0
  1 18  1  0
  2 19  1  0
  2 20  1  0
  2 21  1  0
  3 22  1  0
  3 23  1  0
  4 24  1  0
  4 25  1  0
  5 26  1  0
  5 27  1  0
  6 28  1  0
  6 29  1  0
 10 30  1  0
 11 31  1  0
 12 32  1  0
 13 33  1  0
M  END
