
     RDKit          3D

 19 19  0  0  0  0  0  0  0  0999 V2000
    0.2569   -0.7732    1.0013 C   0  0  0  0  0  0  0  0  0  0  0  0
   -1.0767   -1.1856    1.0565 C   0  0  0  0  0  0  0  0  0  0  0  0
    2.0864    0.7190    0.1142 C   0  0  0  0  0  0  0  0  0  0  0  0
    2.9208   -0.2635   -0.6654 C   0  0  0  0  0  0  0  0  0  0  0  0
   -0.3327    0.9522   -0.5915 C   0  0  0  0  0  0  0  0  0  0  0  0
    0.6406    0.2979    0.1789 C   0  0  0  0  0  0  0  0  0  0  0  0
   -2.0335   -0.5281    0.2879 C   0  0  0  0  0  0  0  0  0  0  0  0
   -1.6635    0.5375   -0.5320 C   0  0  0  0  0  0  0  0  0  0  0  0
    3.9712   -0.7408   -0.2447 O   0  0  0  0  0  0  0  0  0  0  0  0
   -3.3421   -0.9193    0.3300 O   0  0  0  0  0  0  0  0  0  0  0  0
   -2.6184    1.1699   -1.2780 O   0  0  0  0  0  0  0  0  0  0  0  0
    0.9977   -1.2948    1.6062 H   0  0  0  0  0  0  0  0  0  0  0  0
   -1.3479   -2.0164    1.7005 H   0  0  0  0  0  0  0  0  0  0  0  0
    2.1844    1.6972   -0.3695 H   0  0  0  0  0  0  0  0  0  0  0  0
    2.4905    0.8158    1.1282 H   0  0  0  0  0  0  0  0  0  0  0  0
    2.5626   -0.4997   -1.6825 H   0  0  0  0  0  0  0  0  0  0  0  0
   -0.0490    1.7818   -1.2328 H   0  0  0  0  0  0  0  0  0  0  0  0
   -3.4316   -1.6610    0.9474 H   0  0  0  0  0  0  0  0  0  0  0  0
   -2.2158    1.9110   -1.7547 H   0  0  0  0  0  0  0  0  0  0  0  0
  1  2  2  0
  1  6  1  0
  2  7  1  0
  3  4  1  0
  3  6  1  0
  4  9  2  0
  5  6  2  0
  5  8  1  0
  7  8  2  0
  7 10  1  0
  8 11  1  0
  1 12  1  0
  2 13  1  0
  3 14  1  0
  3 15  1  0
  4 16  1  0
  5 17  1  0
 10 18  1  0
 11 19  1  0
M  END
