
     RDKit          3D

 22 23  0  0  0  0  0  0  0  0999 V2000
    3.5016    1.0812   -0.3094 C   0  0  0  0  0  0  0  0  0  0  0  0
    3.1408    0.5837    1.0800 C   0  0  0  0  0  0  0  0  0  0  0  0
   -3.3438    0.6600   -0.6678 C   0  0  0  0  0  0  0  0  0  0  0  0
   -3.5745   -0.7180   -0.7015 C   0  0  0  0  0  0  0  0  0  0  0  0
   -2.0869    1.1695   -0.3167 C   0  0  0  0  0  0  0  0  0  0  0  0
   -2.5637   -1.6342   -0.3874 C   0  0  0  0  0  0  0  0  0  0  0  0
   -1.0608    0.2683    0.0013 C   0  0  0  0  0  0  0  0  0  0  0  0
   -1.3215   -1.0994   -0.0413 C   0  0  0  0  0  0  0  0  0  0  0  0
    0.7644   -0.6744    0.5490 C   0  0  0  0  0  0  0  0  0  0  0  0
    0.2406    0.5130    0.3716 N   0  0  0  0  0  0  0  0  0  0  0  0
   -0.1304   -1.6765    0.3171 N   0  0  0  0  0  0  0  0  0  0  0  0
    2.3745   -1.0640    1.0245 S   0  0  0  0  0  0  0  0  0  0  0  0
    3.9966    2.0554   -0.2370 H   0  0  0  0  0  0  0  0  0  0  0  0
    2.6179    1.2084   -0.9424 H   0  0  0  0  0  0  0  0  0  0  0  0
    4.1932    0.3967   -0.8124 H   0  0  0  0  0  0  0  0  0  0  0  0
    4.0546    0.5007    1.6776 H   0  0  0  0  0  0  0  0  0  0  0  0
    2.4863    1.2959    1.5928 H   0  0  0  0  0  0  0  0  0  0  0  0
   -4.1483    1.3481   -0.9166 H   0  0  0  0  0  0  0  0  0  0  0  0
   -4.5607   -1.0866   -0.9776 H   0  0  0  0  0  0  0  0  0  0  0  0
   -1.9016    2.2374   -0.2885 H   0  0  0  0  0  0  0  0  0  0  0  0
   -2.7445   -2.7032   -0.4139 H   0  0  0  0  0  0  0  0  0  0  0  0
    0.0664   -2.6619    0.3985 H   0  0  0  0  0  0  0  0  0  0  0  0
  1  2  1  0
  2 12  1  0
  3  4  2  0
  3  5  1  0
  4  6  1  0
  5  7  2  0
  6  8  2  0
  7  8  1  0
  7 10  1  0
  8 11  1  0
  9 10  2  0
  9 11  1  0
  9 12  1  0
  1 13  1  0
  1 14  1  0
  1 15  1  0
  2 16  1  0
  2 17  1  0
  3 18  1  0
  4 19  1  0
  5 20  1  0
  6 21  1  0
 11 22  1  0
M  END
