
     RDKit          3D

 21 21  0  0  0  0  0  0  0  0999 V2000
   -2.6980   -0.7615    0.3575 C   0  0  0  0  0  0  0  0  0  0  0  0
    0.5399   -0.2378   -1.3964 C   0  0  0  0  0  0  0  0  0  0  0  0
    0.7834    0.8518    0.7487 C   0  0  0  0  0  0  0  0  0  0  0  0
    1.7971   -0.8269   -1.2406 C   0  0  0  0  0  0  0  0  0  0  0  0
    2.0384    0.2622    0.9038 C   0  0  0  0  0  0  0  0  0  0  0  0
   -1.3390    1.2357   -0.5601 C   0  0  0  0  0  0  0  0  0  0  0  0
   -2.3578    0.7053    0.4282 C   0  0  0  0  0  0  0  0  0  0  0  0
    0.0211    0.6054   -0.4028 C   0  0  0  0  0  0  0  0  0  0  0  0
    2.5354   -0.5714   -0.0899 C   0  0  0  0  0  0  0  0  0  0  0  0
   -2.9021    1.4460    1.2491 O   0  0  0  0  0  0  0  0  0  0  0  0
    3.7659   -1.1257    0.1029 O   0  0  0  0  0  0  0  0  0  0  0  0
   -2.9517   -1.0316   -0.6706 H   0  0  0  0  0  0  0  0  0  0  0  0
   -1.8534   -1.3587    0.7085 H   0  0  0  0  0  0  0  0  0  0  0  0
   -3.5643   -0.9666    0.9929 H   0  0  0  0  0  0  0  0  0  0  0  0
   -0.0293   -0.4419   -2.3008 H   0  0  0  0  0  0  0  0  0  0  0  0
    0.4043    1.5049    1.5332 H   0  0  0  0  0  0  0  0  0  0  0  0
    2.1805   -1.4757   -2.0218 H   0  0  0  0  0  0  0  0  0  0  0  0
    2.6264    0.4543    1.7970 H   0  0  0  0  0  0  0  0  0  0  0  0
   -1.7354    1.0796   -1.5702 H   0  0  0  0  0  0  0  0  0  0  0  0
   -1.2487    2.3207   -0.4280 H   0  0  0  0  0  0  0  0  0  0  0  0
    3.9873   -1.6682   -0.6712 H   0  0  0  0  0  0  0  0  0  0  0  0
  1  7  1  0
  2  4  2  0
  2  8  1  0
  3  5  1  0
  3  8  2  0
  4  9  1  0
  5  9  2  0
  6  7  1  0
  6  8  1  0
  7 10  2  0
  9 11  1  0
  1 12  1  0
  1 13  1  0
  1 14  1  0
  2 15  1  0
  3 16  1  0
  4 17  1  0
  5 18  1  0
  6 19  1  0
  6 20  1  0
 11 21  1  0
M  END
