
     RDKit          3D

  3  2  0  0  0  0  0  0  0  0999 V2000
    1.4469    0.0562    0.0000 N   0  0  0  0  0  2  0  0  0  0  0  0
   -0.0120   -0.0005    0.0000 N   0  0  0  0  0  4  0  0  0  0  0  0
   -1.4349   -0.0557    0.0000 O   0  0  0  0  0  0  0  0  0  0  0  0
  1  2  2  0
  2  3  2  0
M  CHG  2   1  -1   2   1
M  END
