
     RDKit          3D

 24 24  0  0  0  0  0  0  0  0999 V2000
   -3.9944    0.6554   -0.4153 C   0  0  0  0  0  0  0  0  0  0  0  0
    1.4758    0.5198    1.1205 C   0  0  0  0  0  0  0  0  0  0  0  0
    1.3037   -1.2412   -0.5269 C   0  0  0  0  0  0  0  0  0  0  0  0
    2.8037    0.7412    0.7477 C   0  0  0  0  0  0  0  0  0  0  0  0
    2.6300   -1.0196   -0.8998 C   0  0  0  0  0  0  0  0  0  0  0  0
   -0.7259   -0.7025    0.8784 C   0  0  0  0  0  0  0  0  0  0  0  0
   -1.6843    0.1198    0.0069 C   0  0  0  0  0  0  0  0  0  0  0  0
    0.7157   -0.4760    0.4901 C   0  0  0  0  0  0  0  0  0  0  0  0
    3.3694   -0.0324   -0.2605 C   0  0  0  0  0  0  0  0  0  0  0  0
   -3.0746   -0.1107    0.4155 N   0  0  0  0  0  0  0  0  0  0  0  0
    4.6615    0.1503   -0.6560 O   0  0  0  0  0  0  0  0  0  0  0  0
   -3.8119    1.7315   -0.3294 H   0  0  0  0  0  0  0  0  0  0  0  0
   -5.0225    0.4615   -0.0943 H   0  0  0  0  0  0  0  0  0  0  0  0
   -3.9170    0.3611   -1.4669 H   0  0  0  0  0  0  0  0  0  0  0  0
    1.0366    1.1286    1.9077 H   0  0  0  0  0  0  0  0  0  0  0  0
    0.7316   -2.0149   -1.0345 H   0  0  0  0  0  0  0  0  0  0  0  0
    3.3741    1.5152    1.2507 H   0  0  0  0  0  0  0  0  0  0  0  0
    3.0840   -1.6153   -1.6864 H   0  0  0  0  0  0  0  0  0  0  0  0
   -0.8597   -0.4462    1.9376 H   0  0  0  0  0  0  0  0  0  0  0  0
   -0.9589   -1.7722    0.7955 H   0  0  0  0  0  0  0  0  0  0  0  0
   -1.5551   -0.1646   -1.0448 H   0  0  0  0  0  0  0  0  0  0  0  0
   -1.4398    1.1860    0.0939 H   0  0  0  0  0  0  0  0  0  0  0  0
   -3.1931    0.1664    1.3897 H   0  0  0  0  0  0  0  0  0  0  0  0
    5.0510    0.8588   -0.1184 H   0  0  0  0  0  0  0  0  0  0  0  0
  1 10  1  0
  2  4  2  0
  2  8  1  0
  3  5  1  0
  3  8  2  0
  4  9  1  0
  5  9  2  0
  6  7  1  0
  6  8  1  0
  7 10  1  0
  9 11  1  0
  1 12  1  0
  1 13  1  0
  1 14  1  0
  2 15  1  0
  3 16  1  0
  4 17  1  0
  5 18  1  0
  6 19  1  0
  6 20  1  0
  7 21  1  0
  7 22  1  0
 10 23  1  0
 11 24  1  0
M  END
