
     RDKit          3D

 28 28  0  0  0  0  0  0  0  0999 V2000
    4.1830    1.0632   -0.5076 C   0  0  0  0  0  0  0  0  0  0  0  0
    0.7693   -1.6881   -0.3507 C   0  0  0  0  0  0  0  0  0  0  0  0
    2.8803    0.2925   -0.6725 C   0  0  0  0  0  0  0  0  0  0  0  0
   -4.3335   -0.1941    0.2283 C   0  0  0  0  0  0  0  0  0  0  0  0
   -3.7955    0.8230   -0.5581 C   0  0  0  0  0  0  0  0  0  0  0  0
   -3.5031   -0.9528    1.0526 C   0  0  0  0  0  0  0  0  0  0  0  0
   -2.4236    1.0771   -0.5256 C   0  0  0  0  0  0  0  0  0  0  0  0
   -2.1288   -0.7018    1.0883 C   0  0  0  0  0  0  0  0  0  0  0  0
    0.8976   -0.4961    0.5979 C   0  0  0  0  0  0  0  0  0  0  0  0
   -1.5811    0.3072    0.2878 C   0  0  0  0  0  0  0  0  0  0  0  0
   -0.1236    0.6241    0.2905 C   0  0  0  0  0  0  0  0  0  0  0  0
    2.2732    0.0668    0.6418 N   0  0  0  0  0  0  0  0  0  0  0  0
    0.2146    1.7900    0.0736 O   0  0  0  0  0  0  0  0  0  0  0  0
    4.6546    1.2186   -1.4833 H   0  0  0  0  0  0  0  0  0  0  0  0
    4.8901    0.5157    0.1248 H   0  0  0  0  0  0  0  0  0  0  0  0
    4.0088    2.0465   -0.0576 H   0  0  0  0  0  0  0  0  0  0  0  0
    1.5767   -2.4103   -0.1867 H   0  0  0  0  0  0  0  0  0  0  0  0
   -0.1713   -2.2246   -0.1942 H   0  0  0  0  0  0  0  0  0  0  0  0
    0.7869   -1.3760   -1.4007 H   0  0  0  0  0  0  0  0  0  0  0  0
    3.1072   -0.6629   -1.1572 H   0  0  0  0  0  0  0  0  0  0  0  0
    2.2162    0.8614   -1.3316 H   0  0  0  0  0  0  0  0  0  0  0  0
   -5.4030   -0.3898    0.2054 H   0  0  0  0  0  0  0  0  0  0  0  0
   -4.4435    1.4222   -1.1931 H   0  0  0  0  0  0  0  0  0  0  0  0
   -3.9290   -1.7368    1.6747 H   0  0  0  0  0  0  0  0  0  0  0  0
   -2.0127    1.8789   -1.1367 H   0  0  0  0  0  0  0  0  0  0  0  0
   -1.5134   -1.2951    1.7578 H   0  0  0  0  0  0  0  0  0  0  0  0
    0.7002   -0.8345    1.6213 H   0  0  0  0  0  0  0  0  0  0  0  0
    2.2035    0.9757    1.1112 H   0  0  0  0  0  0  0  0  0  0  0  0
  1  3  1  0
  2  9  1  0
  3 12  1  0
  4  5  2  0
  4  6  1  0
  5  7  1  0
  6  8  2  0
  7 10  2  0
  8 10  1  0
  9 11  1  0
  9 12  1  0
 10 11  1  0
 11 13  2  0
  1 14  1  0
  1 15  1  0
  1 16  1  0
  2 17  1  0
  2 18  1  0
  2 19  1  0
  3 20  1  0
  3 21  1  0
  4 22  1  0
  5 23  1  0
  6 24  1  0
  7 25  1  0
  8 26  1  0
  9 27  1  0
 12 28  1  0
M  END
