
     RDKit          3D

 24 24  0  0  0  0  0  0  0  0999 V2000
   -3.0372   -0.7987   -0.1194 C   0  0  0  0  0  0  0  0  0  0  0  0
    3.5339    0.4486   -0.5038 C   0  0  0  0  0  0  0  0  0  0  0  0
    2.4996    1.0168   -1.2427 C   0  0  0  0  0  0  0  0  0  0  0  0
    3.2385   -0.4165    0.5449 C   0  0  0  0  0  0  0  0  0  0  0  0
    1.1679    0.7174   -0.9382 C   0  0  0  0  0  0  0  0  0  0  0  0
    1.9083   -0.7149    0.8484 C   0  0  0  0  0  0  0  0  0  0  0  0
   -1.7370   -0.0520   -0.4437 C   0  0  0  0  0  0  0  0  0  0  0  0
    0.8475   -0.1574    0.1094 C   0  0  0  0  0  0  0  0  0  0  0  0
   -0.5733   -0.5427    0.4819 C   0  0  0  0  0  0  0  0  0  0  0  0
   -1.9842    1.3962   -0.3125 N   0  0  0  0  0  0  0  0  0  0  0  0
   -0.8072   -0.0821    1.8235 O   0  0  0  0  0  0  0  0  0  0  0  0
   -3.3982   -0.5772    0.8907 H   0  0  0  0  0  0  0  0  0  0  0  0
   -3.8301   -0.5236   -0.8244 H   0  0  0  0  0  0  0  0  0  0  0  0
   -2.8913   -1.8814   -0.1975 H   0  0  0  0  0  0  0  0  0  0  0  0
    4.5671    0.6869   -0.7402 H   0  0  0  0  0  0  0  0  0  0  0  0
    2.7255    1.7019   -2.0558 H   0  0  0  0  0  0  0  0  0  0  0  0
    4.0405   -0.8549    1.1322 H   0  0  0  0  0  0  0  0  0  0  0  0
    0.3902    1.1933   -1.5304 H   0  0  0  0  0  0  0  0  0  0  0  0
    1.6943   -1.3830    1.6804 H   0  0  0  0  0  0  0  0  0  0  0  0
   -1.4890   -0.2697   -1.4891 H   0  0  0  0  0  0  0  0  0  0  0  0
   -0.6008   -1.6408    0.5046 H   0  0  0  0  0  0  0  0  0  0  0  0
   -2.9734    1.6131   -0.4087 H   0  0  0  0  0  0  0  0  0  0  0  0
   -1.7075    1.6787    0.6329 H   0  0  0  0  0  0  0  0  0  0  0  0
   -1.5839   -0.5580    2.1574 H   0  0  0  0  0  0  0  0  0  0  0  0
  1  7  1  0
  2  3  2  0
  2  4  1  0
  3  5  1  0
  4  6  2  0
  5  8  2  0
  6  8  1  0
  7  9  1  0
  7 10  1  0
  8  9  1  0
  9 11  1  0
  1 12  1  0
  1 13  1  0
  1 14  1  0
  2 15  1  0
  3 16  1  0
  4 17  1  0
  5 18  1  0
  6 19  1  0
  7 20  1  0
  9 21  1  0
 10 22  1  0
 10 23  1  0
 11 24  1  0
M  END
