
     RDKit          3D

 25 25  0  0  0  0  0  0  0  0999 V2000
   -4.0797    0.1766    1.1223 C   0  0  0  0  0  0  0  0  0  0  0  0
    0.9388    0.8601   -1.2937 C   0  0  0  0  0  0  0  0  0  0  0  0
    2.2347    1.3739   -1.2144 C   0  0  0  0  0  0  0  0  0  0  0  0
   -0.8571   -0.7715   -0.5851 C   0  0  0  0  0  0  0  0  0  0  0  0
   -1.8068   -0.0066    0.3465 C   0  0  0  0  0  0  0  0  0  0  0  0
    1.4854   -0.8160    0.3734 C   0  0  0  0  0  0  0  0  0  0  0  0
    0.5545   -0.2387   -0.5053 C   0  0  0  0  0  0  0  0  0  0  0  0
    3.1420    0.7894   -0.3449 C   0  0  0  0  0  0  0  0  0  0  0  0
    2.7744   -0.2973    0.4439 C   0  0  0  0  0  0  0  0  0  0  0  0
   -3.1637   -0.5566    0.2581 N   0  0  0  0  0  0  0  0  0  0  0  0
    4.4094    1.2915   -0.2661 O   0  0  0  0  0  0  0  0  0  0  0  0
    3.7207   -0.8240    1.2799 O   0  0  0  0  0  0  0  0  0  0  0  0
   -3.7787    0.1121    2.1730 H   0  0  0  0  0  0  0  0  0  0  0  0
   -4.1418    1.2300    0.8307 H   0  0  0  0  0  0  0  0  0  0  0  0
   -5.0840   -0.2492    1.0330 H   0  0  0  0  0  0  0  0  0  0  0  0
    0.2275    1.3221   -1.9757 H   0  0  0  0  0  0  0  0  0  0  0  0
    2.5319    2.2213   -1.8244 H   0  0  0  0  0  0  0  0  0  0  0  0
   -1.2085   -0.7075   -1.6233 H   0  0  0  0  0  0  0  0  0  0  0  0
   -0.8559   -1.8400   -0.3327 H   0  0  0  0  0  0  0  0  0  0  0  0
   -1.8173    1.0538    0.0650 H   0  0  0  0  0  0  0  0  0  0  0  0
   -1.4422   -0.0712    1.3795 H   0  0  0  0  0  0  0  0  0  0  0  0
    1.1934   -1.6609    0.9895 H   0  0  0  0  0  0  0  0  0  0  0  0
   -3.1542   -1.5377    0.5360 H   0  0  0  0  0  0  0  0  0  0  0  0
    4.8533    0.7265    0.3971 H   0  0  0  0  0  0  0  0  0  0  0  0
    3.3239   -1.5798    1.7456 H   0  0  0  0  0  0  0  0  0  0  0  0
  1 10  1  0
  2  3  2  0
  2  7  1  0
  3  8  1  0
  4  5  1  0
  4  7  1  0
  5 10  1  0
  6  7  2  0
  6  9  1  0
  8  9  2  0
  8 11  1  0
  9 12  1  0
  1 13  1  0
  1 14  1  0
  1 15  1  0
  2 16  1  0
  3 17  1  0
  4 18  1  0
  4 19  1  0
  5 20  1  0
  5 21  1  0
  6 22  1  0
 10 23  1  0
 11 24  1  0
 12 25  1  0
M  END
