
     RDKit          3D

 25 25  0  0  0  0  0  0  0  0999 V2000
    3.5983   -0.3770   -0.6342 C   0  0  0  0  0  0  0  0  0  0  0  0
   -0.9553    0.5241    1.3482 C   0  0  0  0  0  0  0  0  0  0  0  0
   -0.0624    1.4246    1.9281 C   0  0  0  0  0  0  0  0  0  0  0  0
   -1.4818   -1.3796   -0.2303 C   0  0  0  0  0  0  0  0  0  0  0  0
   -2.3430   -0.7630   -1.3426 C   0  0  0  0  0  0  0  0  0  0  0  0
    0.8469   -0.4191    0.0370 C   0  0  0  0  0  0  0  0  0  0  0  0
   -0.5118   -0.4066    0.4010 C   0  0  0  0  0  0  0  0  0  0  0  0
    1.2820    1.3965    1.5600 C   0  0  0  0  0  0  0  0  0  0  0  0
    1.7536    0.4780    0.6128 C   0  0  0  0  0  0  0  0  0  0  0  0
   -3.4582    0.0323   -0.8260 N   0  0  0  0  0  0  0  0  0  0  0  0
    2.1595    2.2815    2.1301 O   0  0  0  0  0  0  0  0  0  0  0  0
    3.0920    0.5393    0.3244 O   0  0  0  0  0  0  0  0  0  0  0  0
    4.6712   -0.1902   -0.7418 H   0  0  0  0  0  0  0  0  0  0  0  0
    3.4739   -1.4113   -0.2970 H   0  0  0  0  0  0  0  0  0  0  0  0
    3.1347   -0.2210   -1.6139 H   0  0  0  0  0  0  0  0  0  0  0  0
   -2.0057    0.5574    1.6303 H   0  0  0  0  0  0  0  0  0  0  0  0
   -0.4323    2.1382    2.6569 H   0  0  0  0  0  0  0  0  0  0  0  0
   -0.9149   -2.2176   -0.6568 H   0  0  0  0  0  0  0  0  0  0  0  0
   -2.1127   -1.8248    0.5501 H   0  0  0  0  0  0  0  0  0  0  0  0
   -1.7299   -0.1399   -2.0033 H   0  0  0  0  0  0  0  0  0  0  0  0
   -2.7626   -1.5713   -1.9524 H   0  0  0  0  0  0  0  0  0  0  0  0
    1.1748   -1.1424   -0.7022 H   0  0  0  0  0  0  0  0  0  0  0  0
   -4.0934   -0.5680   -0.3023 H   0  0  0  0  0  0  0  0  0  0  0  0
   -3.9950    0.4048   -1.6084 H   0  0  0  0  0  0  0  0  0  0  0  0
    1.6722    2.8551    2.7406 H   0  0  0  0  0  0  0  0  0  0  0  0
  1 12  1  0
  2  3  2  0
  2  7  1  0
  3  8  1  0
  4  5  1  0
  4  7  1  0
  5 10  1  0
  6  7  2  0
  6  9  1  0
  8  9  2  0
  8 11  1  0
  9 12  1  0
  1 13  1  0
  1 14  1  0
  1 15  1  0
  2 16  1  0
  3 17  1  0
  4 18  1  0
  4 19  1  0
  5 20  1  0
  5 21  1  0
  6 22  1  0
 10 23  1  0
 10 24  1  0
 11 25  1  0
M  END
