
     RDKit          3D

 26 26  0  0  0  0  0  0  0  0999 V2000
   -3.4513   -1.5688    0.6973 C   0  0  0  0  0  0  0  0  0  0  0  0
    0.5963    1.3817    0.0758 C   0  0  0  0  0  0  0  0  0  0  0  0
   -0.4892    2.2121    0.3627 C   0  0  0  0  0  0  0  0  0  0  0  0
   -0.8526   -0.5463    0.2216 C   0  0  0  0  0  0  0  0  0  0  0  0
    3.0165   -0.4138   -0.3357 C   0  0  0  0  0  0  0  0  0  0  0  0
    0.4346   -0.0073    0.0044 C   0  0  0  0  0  0  0  0  0  0  0  0
   -1.7499    1.6576    0.5754 C   0  0  0  0  0  0  0  0  0  0  0  0
    1.5666   -0.9657   -0.3263 C   0  0  0  0  0  0  0  0  0  0  0  0
   -1.9489    0.2741    0.5076 C   0  0  0  0  0  0  0  0  0  0  0  0
    3.5049    0.0727    0.9584 N   0  0  0  0  0  0  0  0  0  0  0  0
   -2.8129    2.4751    0.8547 O   0  0  0  0  0  0  0  0  0  0  0  0
    1.3183   -1.5378   -1.6188 O   0  0  0  0  0  0  0  0  0  0  0  0
   -3.2268   -0.1671    0.7277 O   0  0  0  0  0  0  0  0  0  0  0  0
   -2.8707   -2.0798    1.4724 H   0  0  0  0  0  0  0  0  0  0  0  0
   -3.2380   -1.9812   -0.2944 H   0  0  0  0  0  0  0  0  0  0  0  0
   -4.5110   -1.7427    0.9078 H   0  0  0  0  0  0  0  0  0  0  0  0
    1.5693    1.8423   -0.0784 H   0  0  0  0  0  0  0  0  0  0  0  0
   -0.3312    3.2848    0.4177 H   0  0  0  0  0  0  0  0  0  0  0  0
   -0.9680   -1.6248    0.1554 H   0  0  0  0  0  0  0  0  0  0  0  0
    3.6874   -1.2113   -0.6795 H   0  0  0  0  0  0  0  0  0  0  0  0
    3.1090    0.3852   -1.0811 H   0  0  0  0  0  0  0  0  0  0  0  0
    1.5329   -1.7919    0.3956 H   0  0  0  0  0  0  0  0  0  0  0  0
    4.4951    0.3015    0.8759 H   0  0  0  0  0  0  0  0  0  0  0  0
    3.4444   -0.6764    1.6479 H   0  0  0  0  0  0  0  0  0  0  0  0
   -2.5023    3.3922    0.8997 H   0  0  0  0  0  0  0  0  0  0  0  0
    0.6777   -0.9644   -2.0751 H   0  0  0  0  0  0  0  0  0  0  0  0
  1 13  1  0
  2  3  2  0
  2  6  1  0
  3  7  1  0
  4  6  2  0
  4  9  1  0
  5  8  1  0
  5 10  1  0
  6  8  1  0
  7  9  2  0
  7 11  1  0
  8 12  1  0
  9 13  1  0
  1 14  1  0
  1 15  1  0
  1 16  1  0
  2 17  1  0
  3 18  1  0
  4 19  1  0
  5 20  1  0
  5 21  1  0
  8 22  1  0
 10 23  1  0
 10 24  1  0
 11 25  1  0
 12 26  1  0
M  END
