
     RDKit          3D

 25 25  0  0  0  0  0  0  0  0999 V2000
    3.4979    0.3416   -0.9318 C   0  0  0  0  0  0  0  0  0  0  0  0
    2.8048   -0.7611    1.0804 C   0  0  0  0  0  0  0  0  0  0  0  0
   -4.0591   -0.1927   -0.3123 C   0  0  0  0  0  0  0  0  0  0  0  0
   -3.0977   -0.2608   -1.3193 C   0  0  0  0  0  0  0  0  0  0  0  0
   -3.6802    0.1171    0.9918 C   0  0  0  0  0  0  0  0  0  0  0  0
   -1.7516   -0.0220   -1.0250 C   0  0  0  0  0  0  0  0  0  0  0  0
   -2.3372    0.3563    1.2894 C   0  0  0  0  0  0  0  0  0  0  0  0
    1.1467    0.2502   -0.3887 C   0  0  0  0  0  0  0  0  0  0  0  0
   -1.3605    0.2846    0.2851 C   0  0  0  0  0  0  0  0  0  0  0  0
    0.0656    0.5478    0.6601 C   0  0  0  0  0  0  0  0  0  0  0  0
    2.5194    0.3390    0.1556 N   0  0  0  0  0  0  0  0  0  0  0  0
    0.2973    0.9960    1.7826 O   0  0  0  0  0  0  0  0  0  0  0  0
    4.5146    0.4463   -0.5366 H   0  0  0  0  0  0  0  0  0  0  0  0
    3.4526   -0.5751   -1.5310 H   0  0  0  0  0  0  0  0  0  0  0  0
    3.3333    1.1969   -1.5967 H   0  0  0  0  0  0  0  0  0  0  0  0
    3.8175   -0.6627    1.4881 H   0  0  0  0  0  0  0  0  0  0  0  0
    2.7276   -1.7391    0.5913 H   0  0  0  0  0  0  0  0  0  0  0  0
    2.1287   -0.7560    1.9406 H   0  0  0  0  0  0  0  0  0  0  0  0
   -5.1054   -0.3771   -0.5444 H   0  0  0  0  0  0  0  0  0  0  0  0
   -3.3982   -0.4967   -2.3376 H   0  0  0  0  0  0  0  0  0  0  0  0
   -4.4280    0.1754    1.7789 H   0  0  0  0  0  0  0  0  0  0  0  0
   -1.0366   -0.0730   -1.8402 H   0  0  0  0  0  0  0  0  0  0  0  0
   -2.0550    0.6000    2.3126 H   0  0  0  0  0  0  0  0  0  0  0  0
    1.0253    1.0086   -1.1722 H   0  0  0  0  0  0  0  0  0  0  0  0
    0.9782   -0.7434   -0.8205 H   0  0  0  0  0  0  0  0  0  0  0  0
  1 11  1  0
  2 11  1  0
  3  4  2  0
  3  5  1  0
  4  6  1  0
  5  7  2  0
  6  9  2  0
  7  9  1  0
  8 10  1  0
  8 11  1  0
  9 10  1  0
 10 12  2  0
  1 13  1  0
  1 14  1  0
  1 15  1  0
  2 16  1  0
  2 17  1  0
  2 18  1  0
  3 19  1  0
  4 20  1  0
  5 21  1  0
  6 22  1  0
  7 23  1  0
  8 24  1  0
  8 25  1  0
M  END
