
     RDKit          3D

 27 27  0  0  0  0  0  0  0  0999 V2000
   -2.8685   -0.6861    0.7254 C   0  0  0  0  0  0  0  0  0  0  0  0
    3.6787   -0.3026    0.5977 C   0  0  0  0  0  0  0  0  0  0  0  0
    1.4392    2.4450   -0.1658 C   0  0  0  0  0  0  0  0  0  0  0  0
    0.1541    2.7030   -0.6428 C   0  0  0  0  0  0  0  0  0  0  0  0
   -1.1345   -0.8896   -1.1628 C   0  0  0  0  0  0  0  0  0  0  0  0
    1.0374    0.0828   -0.3644 C   0  0  0  0  0  0  0  0  0  0  0  0
   -1.8439   -1.5799    0.0290 C   0  0  0  0  0  0  0  0  0  0  0  0
   -0.2742    0.3170   -0.8353 C   0  0  0  0  0  0  0  0  0  0  0  0
    1.8907    1.1349   -0.0260 C   0  0  0  0  0  0  0  0  0  0  0  0
   -0.6994    1.6475   -0.9797 C   0  0  0  0  0  0  0  0  0  0  0  0
   -2.4139    2.1213   -1.6469 Br  0  0  0  0  0  0  0  0  0  0  0  0
   -0.8977   -2.1131    1.0191 N   0  0  0  0  0  0  0  0  0  0  0  0
    3.1681    1.0164    0.4462 O   0  0  0  0  0  0  0  0  0  0  0  0
   -2.4017    0.1847    1.1973 H   0  0  0  0  0  0  0  0  0  0  0  0
   -3.6211   -0.3334    0.0131 H   0  0  0  0  0  0  0  0  0  0  0  0
   -3.3997   -1.2403    1.5078 H   0  0  0  0  0  0  0  0  0  0  0  0
    4.7017   -0.2230    0.9780 H   0  0  0  0  0  0  0  0  0  0  0  0
    3.0948   -0.8701    1.3299 H   0  0  0  0  0  0  0  0  0  0  0  0
    3.7211   -0.8227   -0.3650 H   0  0  0  0  0  0  0  0  0  0  0  0
    2.0952    3.2726    0.0929 H   0  0  0  0  0  0  0  0  0  0  0  0
   -0.1693    3.7353   -0.7517 H   0  0  0  0  0  0  0  0  0  0  0  0
   -1.8799   -0.6349   -1.9243 H   0  0  0  0  0  0  0  0  0  0  0  0
   -0.4936   -1.6310   -1.6622 H   0  0  0  0  0  0  0  0  0  0  0  0
    1.3669   -0.9491   -0.2698 H   0  0  0  0  0  0  0  0  0  0  0  0
   -2.3856   -2.4404   -0.3835 H   0  0  0  0  0  0  0  0  0  0  0  0
   -0.4489   -1.3323    1.5012 H   0  0  0  0  0  0  0  0  0  0  0  0
   -1.4158   -2.6120    1.7427 H   0  0  0  0  0  0  0  0  0  0  0  0
  1  7  1  0
  2 13  1  0
  3  4  2  0
  3  9  1  0
  4 10  1  0
  5  7  1  0
  5  8  1  0
  6  8  1  0
  6  9  2  0
  7 12  1  0
  8 10  2  0
  9 13  1  0
 10 11  1  0
  1 14  1  0
  1 15  1  0
  1 16  1  0
  2 17  1  0
  2 18  1  0
  2 19  1  0
  3 20  1  0
  4 21  1  0
  5 22  1  0
  5 23  1  0
  6 24  1  0
  7 25  1  0
 12 26  1  0
 12 27  1  0
M  END
