
     RDKit          3D

 28 28  0  0  0  0  0  0  0  0999 V2000
   -2.9046   -1.4567   -1.2599 C   0  0  0  0  0  0  0  0  0  0  0  0
   -2.8366    2.0832    1.4606 C   0  0  0  0  0  0  0  0  0  0  0  0
    2.2412   -0.9439   -0.8786 C   0  0  0  0  0  0  0  0  0  0  0  0
    2.7598   -1.6837    0.3628 C   0  0  0  0  0  0  0  0  0  0  0  0
    1.2083    1.2563   -0.1872 C   0  0  0  0  0  0  0  0  0  0  0  0
   -0.2619   -0.5797   -0.7569 C   0  0  0  0  0  0  0  0  0  0  0  0
    1.0388   -0.0693   -0.6055 C   0  0  0  0  0  0  0  0  0  0  0  0
    0.0983    2.0600    0.0766 C   0  0  0  0  0  0  0  0  0  0  0  0
   -1.3832    0.2192   -0.5008 C   0  0  0  0  0  0  0  0  0  0  0  0
   -1.1942    1.5399   -0.0576 C   0  0  0  0  0  0  0  0  0  0  0  0
    0.4002    3.8531    0.6232 Br  0  0  0  0  0  0  0  0  0  0  0  0
    3.4573   -0.8021    1.2981 N   0  0  0  0  0  0  0  0  0  0  0  0
   -2.6827   -0.1949   -0.6458 O   0  0  0  0  0  0  0  0  0  0  0  0
   -2.2776    2.3556    0.1754 O   0  0  0  0  0  0  0  0  0  0  0  0
   -2.4557   -1.4987   -2.2579 H   0  0  0  0  0  0  0  0  0  0  0  0
   -3.9849   -1.5865   -1.3759 H   0  0  0  0  0  0  0  0  0  0  0  0
   -2.5390   -2.2708   -0.6259 H   0  0  0  0  0  0  0  0  0  0  0  0
   -2.0731    2.0961    2.2467 H   0  0  0  0  0  0  0  0  0  0  0  0
   -3.5607    2.8729    1.6825 H   0  0  0  0  0  0  0  0  0  0  0  0
   -3.3703    1.1278    1.4678 H   0  0  0  0  0  0  0  0  0  0  0  0
    3.0409   -0.3426   -1.3308 H   0  0  0  0  0  0  0  0  0  0  0  0
    1.9697   -1.6851   -1.6418 H   0  0  0  0  0  0  0  0  0  0  0  0
    1.9341   -2.1796    0.8853 H   0  0  0  0  0  0  0  0  0  0  0  0
    3.4598   -2.4639    0.0431 H   0  0  0  0  0  0  0  0  0  0  0  0
    2.2120    1.6559   -0.0596 H   0  0  0  0  0  0  0  0  0  0  0  0
   -0.3735   -1.6105   -1.0781 H   0  0  0  0  0  0  0  0  0  0  0  0
    4.2818   -0.4047    0.8502 H   0  0  0  0  0  0  0  0  0  0  0  0
    3.7958   -1.3475    2.0899 H   0  0  0  0  0  0  0  0  0  0  0  0
  1 13  1  0
  2 14  1  0
  3  4  1  0
  3  7  1  0
  4 12  1  0
  5  7  2  0
  5  8  1  0
  6  7  1  0
  6  9  2  0
  8 10  2  0
  8 11  1  0
  9 10  1  0
  9 13  1  0
 10 14  1  0
  1 15  1  0
  1 16  1  0
  1 17  1  0
  2 18  1  0
  2 19  1  0
  2 20  1  0
  3 21  1  0
  3 22  1  0
  4 23  1  0
  4 24  1  0
  5 25  1  0
  6 26  1  0
 12 27  1  0
 12 28  1  0
M  END
