
     RDKit          3D

 28 28  0  0  0  0  0  0  0  0999 V2000
   -1.7323   -2.8229    1.0949 C   0  0  0  0  0  0  0  0  0  0  0  0
   -3.5882    2.0988   -0.3362 C   0  0  0  0  0  0  0  0  0  0  0  0
    2.4163   -0.4993   -0.8771 C   0  0  0  0  0  0  0  0  0  0  0  0
    3.2686   -0.4060    0.3982 C   0  0  0  0  0  0  0  0  0  0  0  0
    0.0916   -0.9977   -0.0689 C   0  0  0  0  0  0  0  0  0  0  0  0
   -0.8630    1.5115   -0.8093 C   0  0  0  0  0  0  0  0  0  0  0  0
    0.9743   -0.0803   -0.6728 C   0  0  0  0  0  0  0  0  0  0  0  0
    0.4770    1.1779   -1.0380 C   0  0  0  0  0  0  0  0  0  0  0  0
   -1.2506   -0.6728    0.1631 C   0  0  0  0  0  0  0  0  0  0  0  0
   -1.7319    0.5955   -0.2109 C   0  0  0  0  0  0  0  0  0  0  0  0
    1.4715    2.3824   -1.7777 Cl  0  0  0  0  0  0  0  0  0  0  0  0
    3.5705    0.9694    0.7836 N   0  0  0  0  0  0  0  0  0  0  0  0
   -2.1631   -1.5152    0.7476 O   0  0  0  0  0  0  0  0  0  0  0  0
   -3.0572    0.8397    0.0520 O   0  0  0  0  0  0  0  0  0  0  0  0
   -1.4014   -3.3786    0.2113 H   0  0  0  0  0  0  0  0  0  0  0  0
   -2.5885   -3.3553    1.5203 H   0  0  0  0  0  0  0  0  0  0  0  0
   -0.9489   -2.7899    1.8591 H   0  0  0  0  0  0  0  0  0  0  0  0
   -4.6482    2.1127   -0.0648 H   0  0  0  0  0  0  0  0  0  0  0  0
   -3.5209    2.2392   -1.4200 H   0  0  0  0  0  0  0  0  0  0  0  0
   -3.0971    2.9166    0.2012 H   0  0  0  0  0  0  0  0  0  0  0  0
    2.8870    0.0585   -1.6942 H   0  0  0  0  0  0  0  0  0  0  0  0
    2.4182   -1.5433   -1.2196 H   0  0  0  0  0  0  0  0  0  0  0  0
    2.7713   -0.9141    1.2322 H   0  0  0  0  0  0  0  0  0  0  0  0
    4.2184   -0.9233    0.2236 H   0  0  0  0  0  0  0  0  0  0  0  0
    0.4819   -1.9706    0.2149 H   0  0  0  0  0  0  0  0  0  0  0  0
   -1.2044    2.4971   -1.1076 H   0  0  0  0  0  0  0  0  0  0  0  0
    2.7045    1.4933    0.9099 H   0  0  0  0  0  0  0  0  0  0  0  0
    4.0448    0.9769    1.6853 H   0  0  0  0  0  0  0  0  0  0  0  0
  1 13  1  0
  2 14  1  0
  3  4  1  0
  3  7  1  0
  4 12  1  0
  5  7  2  0
  5  9  1  0
  6  8  2  0
  6 10  1  0
  7  8  1  0
  8 11  1  0
  9 10  2  0
  9 13  1  0
 10 14  1  0
  1 15  1  0
  1 16  1  0
  1 17  1  0
  2 18  1  0
  2 19  1  0
  2 20  1  0
  3 21  1  0
  3 22  1  0
  4 23  1  0
  4 24  1  0
  5 25  1  0
  6 26  1  0
 12 27  1  0
 12 28  1  0
M  END
