
     RDKit          3D

 27 27  0  0  0  0  0  0  0  0999 V2000
   -4.3824    0.3034    0.5637 C   0  0  0  0  0  0  0  0  0  0  0  0
    4.8025    0.7414    0.4381 C   0  0  0  0  0  0  0  0  0  0  0  0
    0.6841   -1.0459   -1.2679 C   0  0  0  0  0  0  0  0  0  0  0  0
    0.5825    0.9048    0.1445 C   0  0  0  0  0  0  0  0  0  0  0  0
    2.0751   -1.0564   -1.1406 C   0  0  0  0  0  0  0  0  0  0  0  0
    1.9764    0.8913    0.2700 C   0  0  0  0  0  0  0  0  0  0  0  0
   -1.5802   -0.0530   -0.7468 C   0  0  0  0  0  0  0  0  0  0  0  0
   -2.2434   -0.8461    0.3895 C   0  0  0  0  0  0  0  0  0  0  0  0
   -0.0752   -0.0598   -0.6291 C   0  0  0  0  0  0  0  0  0  0  0  0
    2.7294   -0.0903   -0.3736 C   0  0  0  0  0  0  0  0  0  0  0  0
   -3.7024   -0.9501    0.2738 N   0  0  0  0  0  0  0  0  0  0  0  0
    4.0906   -0.2172   -0.3338 O   0  0  0  0  0  0  0  0  0  0  0  0
   -5.4644    0.1395    0.5446 H   0  0  0  0  0  0  0  0  0  0  0  0
   -4.1261    0.6740    1.5614 H   0  0  0  0  0  0  0  0  0  0  0  0
   -4.1532    1.0758   -0.1762 H   0  0  0  0  0  0  0  0  0  0  0  0
    5.8680    0.5025    0.3678 H   0  0  0  0  0  0  0  0  0  0  0  0
    4.5184    0.6877    1.4943 H   0  0  0  0  0  0  0  0  0  0  0  0
    4.6612    1.7520    0.0408 H   0  0  0  0  0  0  0  0  0  0  0  0
    0.2015   -1.8138   -1.8679 H   0  0  0  0  0  0  0  0  0  0  0  0
    0.0130    1.6768    0.6578 H   0  0  0  0  0  0  0  0  0  0  0  0
    2.6551   -1.8267   -1.6431 H   0  0  0  0  0  0  0  0  0  0  0  0
    2.4398    1.6604    0.8784 H   0  0  0  0  0  0  0  0  0  0  0  0
   -1.8693   -0.4730   -1.7189 H   0  0  0  0  0  0  0  0  0  0  0  0
   -1.9284    0.9869   -0.7518 H   0  0  0  0  0  0  0  0  0  0  0  0
   -1.8465   -1.8690    0.3874 H   0  0  0  0  0  0  0  0  0  0  0  0
   -1.9722   -0.4256    1.3663 H   0  0  0  0  0  0  0  0  0  0  0  0
   -3.9538   -1.2697   -0.6610 H   0  0  0  0  0  0  0  0  0  0  0  0
  1 11  1  0
  2 12  1  0
  3  5  2  0
  3  9  1  0
  4  6  1  0
  4  9  2  0
  5 10  1  0
  6 10  2  0
  7  8  1  0
  7  9  1  0
  8 11  1  0
 10 12  1  0
  1 13  1  0
  1 14  1  0
  1 15  1  0
  2 16  1  0
  2 17  1  0
  2 18  1  0
  3 19  1  0
  4 20  1  0
  5 21  1  0
  6 22  1  0
  7 23  1  0
  7 24  1  0
  8 25  1  0
  8 26  1  0
 11 27  1  0
M  END
