
     RDKit          3D

 27 27  0  0  0  0  0  0  0  0999 V2000
   -3.5858   -0.0199    0.5176 C   0  0  0  0  0  0  0  0  0  0  0  0
   -1.8892    1.9527   -0.9281 C   0  0  0  0  0  0  0  0  0  0  0  0
   -1.5173   -1.3975    0.8550 C   0  0  0  0  0  0  0  0  0  0  0  0
   -0.1492   -1.6293    0.7035 C   0  0  0  0  0  0  0  0  0  0  0  0
    0.0713    0.4426   -0.4974 C   0  0  0  0  0  0  0  0  0  0  0  0
    3.1099    0.1201   -0.5016 C   0  0  0  0  0  0  0  0  0  0  0  0
   -2.1097   -0.2405    0.3333 C   0  0  0  0  0  0  0  0  0  0  0  0
   -1.3064    0.6905   -0.3519 C   0  0  0  0  0  0  0  0  0  0  0  0
    0.6690   -0.7098    0.0303 C   0  0  0  0  0  0  0  0  0  0  0  0
    2.1424   -1.0358   -0.1358 C   0  0  0  0  0  0  0  0  0  0  0  0
    3.1945    1.1992    0.4873 N   0  0  0  0  0  0  0  0  0  0  0  0
    2.2795   -2.0489   -1.1431 O   0  0  0  0  0  0  0  0  0  0  0  0
   -4.0481   -0.8394    1.0783 H   0  0  0  0  0  0  0  0  0  0  0  0
   -3.7658    0.9036    1.0769 H   0  0  0  0  0  0  0  0  0  0  0  0
   -4.0860    0.0373   -0.4543 H   0  0  0  0  0  0  0  0  0  0  0  0
   -2.6644    1.7131   -1.6628 H   0  0  0  0  0  0  0  0  0  0  0  0
   -2.3172    2.5708   -0.1326 H   0  0  0  0  0  0  0  0  0  0  0  0
   -1.1279    2.5525   -1.4382 H   0  0  0  0  0  0  0  0  0  0  0  0
   -2.1187   -2.1317    1.3868 H   0  0  0  0  0  0  0  0  0  0  0  0
    0.2798   -2.5410    1.1158 H   0  0  0  0  0  0  0  0  0  0  0  0
    0.6795    1.1746   -1.0249 H   0  0  0  0  0  0  0  0  0  0  0  0
    4.1137   -0.3024   -0.6378 H   0  0  0  0  0  0  0  0  0  0  0  0
    2.8407    0.5434   -1.4765 H   0  0  0  0  0  0  0  0  0  0  0  0
    2.5012   -1.4768    0.8032 H   0  0  0  0  0  0  0  0  0  0  0  0
    3.4594    0.8118    1.3923 H   0  0  0  0  0  0  0  0  0  0  0  0
    3.9410    1.8394    0.2199 H   0  0  0  0  0  0  0  0  0  0  0  0
    1.4038   -2.1786   -1.5477 H   0  0  0  0  0  0  0  0  0  0  0  0
  1  7  1  0
  2  8  1  0
  3  4  2  0
  3  7  1  0
  4  9  1  0
  5  8  1  0
  5  9  2  0
  6 10  1  0
  6 11  1  0
  7  8  2  0
  9 10  1  0
 10 12  1  0
  1 13  1  0
  1 14  1  0
  1 15  1  0
  2 16  1  0
  2 17  1  0
  2 18  1  0
  3 19  1  0
  4 20  1  0
  5 21  1  0
  6 22  1  0
  6 23  1  0
 10 24  1  0
 11 25  1  0
 11 26  1  0
 12 27  1  0
M  END
