
     RDKit          3D

 27 27  0  0  0  0  0  0  0  0999 V2000
   -1.7242   -0.0717    2.0182 C   0  0  0  0  0  0  0  0  0  0  0  0
    2.3946    2.3465   -0.0377 C   0  0  0  0  0  0  0  0  0  0  0  0
    1.0192   -2.4831   -0.4564 C   0  0  0  0  0  0  0  0  0  0  0  0
    2.2276   -1.8228   -0.6403 C   0  0  0  0  0  0  0  0  0  0  0  0
   -0.1060   -1.7681   -0.0493 C   0  0  0  0  0  0  0  0  0  0  0  0
    2.3142   -0.4478   -0.4147 C   0  0  0  0  0  0  0  0  0  0  0  0
   -2.4757    0.2380   -0.3760 C   0  0  0  0  0  0  0  0  0  0  0  0
   -1.2957    0.3818    0.6165 C   0  0  0  0  0  0  0  0  0  0  0  0
   -0.0427   -0.3787    0.1764 C   0  0  0  0  0  0  0  0  0  0  0  0
    1.1904    0.2823   -0.0072 C   0  0  0  0  0  0  0  0  0  0  0  0
   -2.1894    0.8163   -1.6902 N   0  0  0  0  0  0  0  0  0  0  0  0
    1.2015    1.6289    0.2458 O   0  0  0  0  0  0  0  0  0  0  0  0
   -2.5647    0.5319    2.3777 H   0  0  0  0  0  0  0  0  0  0  0  0
   -2.0395   -1.1206    2.0314 H   0  0  0  0  0  0  0  0  0  0  0  0
   -0.9025    0.0403    2.7344 H   0  0  0  0  0  0  0  0  0  0  0  0
    2.2042    3.4046    0.1665 H   0  0  0  0  0  0  0  0  0  0  0  0
    2.6710    2.2567   -1.0934 H   0  0  0  0  0  0  0  0  0  0  0  0
    3.2118    2.0246    0.6159 H   0  0  0  0  0  0  0  0  0  0  0  0
    0.9516   -3.5545   -0.6255 H   0  0  0  0  0  0  0  0  0  0  0  0
    3.1080   -2.3775   -0.9544 H   0  0  0  0  0  0  0  0  0  0  0  0
   -1.0383   -2.3089    0.0953 H   0  0  0  0  0  0  0  0  0  0  0  0
    3.2796    0.0249   -0.5606 H   0  0  0  0  0  0  0  0  0  0  0  0
   -3.3571    0.7482    0.0294 H   0  0  0  0  0  0  0  0  0  0  0  0
   -2.7509   -0.8147   -0.5049 H   0  0  0  0  0  0  0  0  0  0  0  0
   -1.0750    1.4535    0.6924 H   0  0  0  0  0  0  0  0  0  0  0  0
   -1.3054    0.4411   -2.0365 H   0  0  0  0  0  0  0  0  0  0  0  0
   -2.9067    0.5288   -2.3528 H   0  0  0  0  0  0  0  0  0  0  0  0
  1  8  1  0
  2 12  1  0
  3  4  2  0
  3  5  1  0
  4  6  1  0
  5  9  2  0
  6 10  2  0
  7  8  1  0
  7 11  1  0
  8  9  1  0
  9 10  1  0
 10 12  1  0
  1 13  1  0
  1 14  1  0
  1 15  1  0
  2 16  1  0
  2 17  1  0
  2 18  1  0
  3 19  1  0
  4 20  1  0
  5 21  1  0
  6 22  1  0
  7 23  1  0
  7 24  1  0
  8 25  1  0
 11 26  1  0
 11 27  1  0
M  END
