
     RDKit          3D

 28 28  0  0  0  0  0  0  0  0999 V2000
   -3.6432    0.8184    1.5775 C   0  0  0  0  0  0  0  0  0  0  0  0
    4.1951   -1.5601   -1.4848 C   0  0  0  0  0  0  0  0  0  0  0  0
    0.0920   -0.7042   -0.9397 C   0  0  0  0  0  0  0  0  0  0  0  0
    1.4417   -1.0163   -1.1424 C   0  0  0  0  0  0  0  0  0  0  0  0
   -1.7427    0.8148   -0.0843 C   0  0  0  0  0  0  0  0  0  0  0  0
    0.7186    1.3614    0.1330 C   0  0  0  0  0  0  0  0  0  0  0  0
   -2.3575    0.1108    1.1455 C   0  0  0  0  0  0  0  0  0  0  0  0
   -0.2831    0.4858   -0.3051 C   0  0  0  0  0  0  0  0  0  0  0  0
    2.0643    1.0459   -0.0736 C   0  0  0  0  0  0  0  0  0  0  0  0
    2.4423   -0.1427   -0.7121 C   0  0  0  0  0  0  0  0  0  0  0  0
   -2.6638   -1.2987    0.8669 N   0  0  0  0  0  0  0  0  0  0  0  0
    3.0366    1.9119    0.3556 O   0  0  0  0  0  0  0  0  0  0  0  0
    3.7882   -0.3510   -0.8617 O   0  0  0  0  0  0  0  0  0  0  0  0
   -4.0847    0.3329    2.4551 H   0  0  0  0  0  0  0  0  0  0  0  0
   -3.4389    1.8603    1.8466 H   0  0  0  0  0  0  0  0  0  0  0  0
   -4.3913    0.8176    0.7767 H   0  0  0  0  0  0  0  0  0  0  0  0
    5.2890   -1.5693   -1.5151 H   0  0  0  0  0  0  0  0  0  0  0  0
    3.8720   -2.4319   -0.9063 H   0  0  0  0  0  0  0  0  0  0  0  0
    3.8343   -1.6138   -2.5172 H   0  0  0  0  0  0  0  0  0  0  0  0
   -0.6699   -1.4065   -1.2726 H   0  0  0  0  0  0  0  0  0  0  0  0
    1.6737   -1.9532   -1.6366 H   0  0  0  0  0  0  0  0  0  0  0  0
   -2.3102    0.5755   -0.9940 H   0  0  0  0  0  0  0  0  0  0  0  0
   -1.8353    1.9031    0.0321 H   0  0  0  0  0  0  0  0  0  0  0  0
    0.4433    2.2852    0.6325 H   0  0  0  0  0  0  0  0  0  0  0  0
   -1.6475    0.1475    1.9807 H   0  0  0  0  0  0  0  0  0  0  0  0
   -3.3950   -1.3620    0.1597 H   0  0  0  0  0  0  0  0  0  0  0  0
   -3.0427   -1.7366    1.7060 H   0  0  0  0  0  0  0  0  0  0  0  0
    2.6147    2.6751    0.7776 H   0  0  0  0  0  0  0  0  0  0  0  0
  1  7  1  0
  2 13  1  0
  3  4  2  0
  3  8  1  0
  4 10  1  0
  5  7  1  0
  5  8  1  0
  6  8  2  0
  6  9  1  0
  7 11  1  0
  9 10  2  0
  9 12  1  0
 10 13  1  0
  1 14  1  0
  1 15  1  0
  1 16  1  0
  2 17  1  0
  2 18  1  0
  2 19  1  0
  3 20  1  0
  4 21  1  0
  5 22  1  0
  5 23  1  0
  6 24  1  0
  7 25  1  0
 11 26  1  0
 11 27  1  0
 12 28  1  0
M  END
