
     RDKit          3D

 28 28  0  0  0  0  0  0  0  0999 V2000
   -3.6446   -1.3871   -0.6969 C   0  0  0  0  0  0  0  0  0  0  0  0
    4.3981    1.9309   -0.8251 C   0  0  0  0  0  0  0  0  0  0  0  0
    0.6659   -0.2933    1.2200 C   0  0  0  0  0  0  0  0  0  0  0  0
    0.7826   -0.2410   -1.1868 C   0  0  0  0  0  0  0  0  0  0  0  0
    1.8608    0.4265    1.2870 C   0  0  0  0  0  0  0  0  0  0  0  0
    1.9803    0.4799   -1.1163 C   0  0  0  0  0  0  0  0  0  0  0  0
   -1.1862   -1.4004   -0.0968 C   0  0  0  0  0  0  0  0  0  0  0  0
   -2.4061   -0.5190   -0.4559 C   0  0  0  0  0  0  0  0  0  0  0  0
    0.1156   -0.6350   -0.0201 C   0  0  0  0  0  0  0  0  0  0  0  0
    2.5249    0.8169    0.1225 C   0  0  0  0  0  0  0  0  0  0  0  0
   -2.7058    0.5372    0.5334 N   0  0  0  0  0  0  0  0  0  0  0  0
   -2.9789   -0.1222    1.8009 O   0  0  0  0  0  0  0  0  0  0  0  0
    3.6820    1.5159    0.3308 O   0  0  0  0  0  0  0  0  0  0  0  0
   -3.9105   -1.9754    0.1880 H   0  0  0  0  0  0  0  0  0  0  0  0
   -3.4678   -2.0864   -1.5214 H   0  0  0  0  0  0  0  0  0  0  0  0
   -4.5086   -0.7704   -0.9683 H   0  0  0  0  0  0  0  0  0  0  0  0
    4.7302    1.0698   -1.4145 H   0  0  0  0  0  0  0  0  0  0  0  0
    3.8024    2.6205   -1.4323 H   0  0  0  0  0  0  0  0  0  0  0  0
    5.2904    2.4687   -0.4903 H   0  0  0  0  0  0  0  0  0  0  0  0
    0.1655   -0.5807    2.1424 H   0  0  0  0  0  0  0  0  0  0  0  0
    0.3739   -0.4932   -2.1629 H   0  0  0  0  0  0  0  0  0  0  0  0
    2.2780    0.6861    2.2569 H   0  0  0  0  0  0  0  0  0  0  0  0
    2.4596    0.7618   -2.0475 H   0  0  0  0  0  0  0  0  0  0  0  0
   -1.3597   -1.9335    0.8470 H   0  0  0  0  0  0  0  0  0  0  0  0
   -1.0692   -2.1875   -0.8542 H   0  0  0  0  0  0  0  0  0  0  0  0
   -2.1902   -0.0007   -1.3988 H   0  0  0  0  0  0  0  0  0  0  0  0
   -1.8389    1.0470    0.7360 H   0  0  0  0  0  0  0  0  0  0  0  0
   -3.8437    0.2646    2.0416 H   0  0  0  0  0  0  0  0  0  0  0  0
  1  8  1  0
  2 13  1  0
  3  5  2  0
  3  9  1  0
  4  6  1  0
  4  9  2  0
  5 10  1  0
  6 10  2  0
  7  8  1  0
  7  9  1  0
  8 11  1  0
 10 13  1  0
 11 12  1  0
  1 14  1  0
  1 15  1  0
  1 16  1  0
  2 17  1  0
  2 18  1  0
  2 19  1  0
  3 20  1  0
  4 21  1  0
  5 22  1  0
  6 23  1  0
  7 24  1  0
  7 25  1  0
  8 26  1  0
 11 27  1  0
 12 28  1  0
M  END
