
     RDKit          3D

 29 29  0  0  0  0  0  0  0  0999 V2000
    3.0356    1.6019    1.7979 C   0  0  0  0  0  0  0  0  0  0  0  0
   -2.9213    1.4729   -2.4236 C   0  0  0  0  0  0  0  0  0  0  0  0
   -2.9189   -0.7394    0.4507 C   0  0  0  0  0  0  0  0  0  0  0  0
   -2.0707   -1.5493    1.2028 C   0  0  0  0  0  0  0  0  0  0  0  0
   -1.0579   -0.0637   -0.9242 C   0  0  0  0  0  0  0  0  0  0  0  0
    2.0027    0.4607   -0.0644 C   0  0  0  0  0  0  0  0  0  0  0  0
   -2.4214    0.0022   -0.6208 C   0  0  0  0  0  0  0  0  0  0  0  0
   -0.1778   -0.8695   -0.1687 C   0  0  0  0  0  0  0  0  0  0  0  0
   -0.7180   -1.6167    0.8852 C   0  0  0  0  0  0  0  0  0  0  0  0
    1.2995   -0.8484   -0.5166 C   0  0  0  0  0  0  0  0  0  0  0  0
    2.4135    0.3613    1.3506 N   0  0  0  0  0  0  0  0  0  0  0  0
    0.0443   -2.4537    1.6491 O   0  0  0  0  0  0  0  0  0  0  0  0
    1.9875   -1.9712    0.0677 O   0  0  0  0  0  0  0  0  0  0  0  0
   -3.3574    0.7501   -1.2800 O   0  0  0  0  0  0  0  0  0  0  0  0
    2.3442    2.4474    1.7223 H   0  0  0  0  0  0  0  0  0  0  0  0
    3.9376    1.8227    1.2182 H   0  0  0  0  0  0  0  0  0  0  0  0
    3.3331    1.5023    2.8463 H   0  0  0  0  0  0  0  0  0  0  0  0
   -2.1875    2.2378   -2.1493 H   0  0  0  0  0  0  0  0  0  0  0  0
   -3.7910    1.9834   -2.8484 H   0  0  0  0  0  0  0  0  0  0  0  0
   -2.5234    0.7993   -3.1899 H   0  0  0  0  0  0  0  0  0  0  0  0
   -3.9765   -0.6930    0.6971 H   0  0  0  0  0  0  0  0  0  0  0  0
   -2.4645   -2.1353    2.0283 H   0  0  0  0  0  0  0  0  0  0  0  0
   -0.6493    0.5128   -1.7486 H   0  0  0  0  0  0  0  0  0  0  0  0
    2.9139    0.5742   -0.6648 H   0  0  0  0  0  0  0  0  0  0  0  0
    1.3690    1.3372   -0.2416 H   0  0  0  0  0  0  0  0  0  0  0  0
    1.4003   -0.9577   -1.6030 H   0  0  0  0  0  0  0  0  0  0  0  0
    1.5793    0.1873    1.9215 H   0  0  0  0  0  0  0  0  0  0  0  0
    0.8791   -2.5940    1.1501 H   0  0  0  0  0  0  0  0  0  0  0  0
    2.6963   -1.5615    0.6133 H   0  0  0  0  0  0  0  0  0  0  0  0
  1 11  1  0
  2 14  1  0
  3  4  2  0
  3  7  1  0
  4  9  1  0
  5  7  2  0
  5  8  1  0
  6 10  1  0
  6 11  1  0
  7 14  1  0
  8  9  2  0
  8 10  1  0
  9 12  1  0
 10 13  1  0
  1 15  1  0
  1 16  1  0
  1 17  1  0
  2 18  1  0
  2 19  1  0
  2 20  1  0
  3 21  1  0
  4 22  1  0
  5 23  1  0
  6 24  1  0
  6 25  1  0
 10 26  1  0
 11 27  1  0
 12 28  1  0
 13 29  1  0
M  END
