
     RDKit          3D

 28 28  0  0  0  0  0  0  0  0999 V2000
   -3.3924   -0.7385    0.7613 C   0  0  0  0  0  0  0  0  0  0  0  0
   -3.7512    1.1335   -0.6917 C   0  0  0  0  0  0  0  0  0  0  0  0
    3.0021   -1.9031   -0.0087 C   0  0  0  0  0  0  0  0  0  0  0  0
    1.6251   -2.0024   -0.2108 C   0  0  0  0  0  0  0  0  0  0  0  0
    3.6061   -0.6496    0.0706 C   0  0  0  0  0  0  0  0  0  0  0  0
    1.4503    0.4073   -0.2608 C   0  0  0  0  0  0  0  0  0  0  0  0
   -1.5232    0.2314   -0.4620 C   0  0  0  0  0  0  0  0  0  0  0  0
    0.8358   -0.8505   -0.3353 C   0  0  0  0  0  0  0  0  0  0  0  0
    2.8382    0.5181   -0.0481 C   0  0  0  0  0  0  0  0  0  0  0  0
   -0.6373   -1.0194   -0.5533 C   0  0  0  0  0  0  0  0  0  0  0  0
    3.4956    1.8765    0.0094 C   0  0  0  0  0  0  0  0  0  0  0  0
    3.8503    2.3303   -1.2231 F   0  0  0  0  0  0  0  0  0  0  0  0
    4.6301    1.8945    0.7612 F   0  0  0  0  0  0  0  0  0  0  0  0
    2.6816    2.8317    0.5400 F   0  0  0  0  0  0  0  0  0  0  0  0
   -2.9678   -0.0835   -0.4787 N   0  0  0  0  0  0  0  0  0  0  0  0
   -1.0584   -2.1483   -0.8024 O   0  0  0  0  0  0  0  0  0  0  0  0
   -2.8691   -1.6860    0.9213 H   0  0  0  0  0  0  0  0  0  0  0  0
   -4.4598   -0.9833    0.7165 H   0  0  0  0  0  0  0  0  0  0  0  0
   -3.2246   -0.1036    1.6391 H   0  0  0  0  0  0  0  0  0  0  0  0
   -4.8207    0.9005   -0.7441 H   0  0  0  0  0  0  0  0  0  0  0  0
   -3.4874    1.5996   -1.6476 H   0  0  0  0  0  0  0  0  0  0  0  0
   -3.5964    1.8697    0.1055 H   0  0  0  0  0  0  0  0  0  0  0  0
    3.6019   -2.8061    0.0830 H   0  0  0  0  0  0  0  0  0  0  0  0
    1.1681   -2.9896   -0.2734 H   0  0  0  0  0  0  0  0  0  0  0  0
    4.6832   -0.5863    0.2240 H   0  0  0  0  0  0  0  0  0  0  0  0
    0.8733    1.3226   -0.3735 H   0  0  0  0  0  0  0  0  0  0  0  0
   -1.2813    0.8384   -1.3433 H   0  0  0  0  0  0  0  0  0  0  0  0
   -1.2721    0.7960    0.4437 H   0  0  0  0  0  0  0  0  0  0  0  0
  1 15  1  0
  2 15  1  0
  3  4  2  0
  3  5  1  0
  4  8  1  0
  5  9  2  0
  6  8  2  0
  6  9  1  0
  7 10  1  0
  7 15  1  0
  8 10  1  0
  9 11  1  0
 10 16  2  0
 11 12  1  0
 11 13  1  0
 11 14  1  0
  1 17  1  0
  1 18  1  0
  1 19  1  0
  2 20  1  0
  2 21  1  0
  2 22  1  0
  3 23  1  0
  4 24  1  0
  5 25  1  0
  6 26  1  0
  7 27  1  0
  7 28  1  0
M  END
