
     RDKit          3D

 26 27  0  0  0  0  0  0  0  0999 V2000
    3.4758   -0.0412    0.4546 C   0  0  0  0  0  0  0  0  0  0  0  0
   -1.8823   -2.2199   -2.1364 C   0  0  0  0  0  0  0  0  0  0  0  0
    2.8108   -0.9734    1.4174 C   0  0  0  0  0  0  0  0  0  0  0  0
    1.4935   -1.1364    1.6174 C   0  0  0  0  0  0  0  0  0  0  0  0
   -0.3143   -1.0384   -0.0833 C   0  0  0  0  0  0  0  0  0  0  0  0
    0.1824    0.9412    1.2543 C   0  0  0  0  0  0  0  0  0  0  0  0
   -2.2612    3.0005   -0.2065 C   0  0  0  0  0  0  0  0  0  0  0  0
    0.4410   -0.3934    0.9217 C   0  0  0  0  0  0  0  0  0  0  0  0
   -1.3295   -0.3582   -0.7672 C   0  0  0  0  0  0  0  0  0  0  0  0
   -0.8215    1.5890    0.5683 C   0  0  0  0  0  0  0  0  0  0  0  0
   -1.5565    0.9618   -0.4124 C   0  0  0  0  0  0  0  0  0  0  0  0
   -2.1205   -0.8725   -1.7535 O   0  0  0  0  0  0  0  0  0  0  0  0
   -1.2014    2.8808    0.7633 O   0  0  0  0  0  0  0  0  0  0  0  0
   -2.4931    1.7929   -0.9541 O   0  0  0  0  0  0  0  0  0  0  0  0
    2.7705    0.5052   -0.1770 H   0  0  0  0  0  0  0  0  0  0  0  0
    4.1409   -0.6082   -0.2044 H   0  0  0  0  0  0  0  0  0  0  0  0
    4.0795    0.6884    1.0030 H   0  0  0  0  0  0  0  0  0  0  0  0
   -2.0652   -2.9055   -1.3024 H   0  0  0  0  0  0  0  0  0  0  0  0
   -2.5881   -2.4710   -2.9341 H   0  0  0  0  0  0  0  0  0  0  0  0
   -0.8704   -2.3442   -2.5362 H   0  0  0  0  0  0  0  0  0  0  0  0
    3.4903   -1.5874    2.0065 H   0  0  0  0  0  0  0  0  0  0  0  0
    1.1432   -1.8691    2.3412 H   0  0  0  0  0  0  0  0  0  0  0  0
   -0.0811   -2.0738   -0.3127 H   0  0  0  0  0  0  0  0  0  0  0  0
    0.7480    1.4561    2.0230 H   0  0  0  0  0  0  0  0  0  0  0  0
   -2.0055    3.8038   -0.9070 H   0  0  0  0  0  0  0  0  0  0  0  0
   -3.1852    3.2729    0.3165 H   0  0  0  0  0  0  0  0  0  0  0  0
  1  3  1  0
  2 12  1  0
  3  4  2  3
  4  8  1  0
  5  8  2  0
  5  9  1  0
  6  8  1  0
  6 10  2  0
  7 13  1  0
  7 14  1  0
  9 11  2  0
  9 12  1  0
 10 11  1  0
 10 13  1  0
 11 14  1  0
  1 15  1  0
  1 16  1  0
  1 17  1  0
  2 18  1  0
  2 19  1  0
  2 20  1  0
  3 21  1  0
  4 22  1  0
  5 23  1  0
  6 24  1  0
  7 25  1  0
  7 26  1  0
M  END
