
     RDKit          3D

 29 30  0  0  0  0  0  0  0  0999 V2000
   -3.4726    1.5944   -0.0166 C   0  0  0  0  0  0  0  0  0  0  0  0
   -1.2926   -2.1268   -1.0493 C   0  0  0  0  0  0  0  0  0  0  0  0
   -2.2976    0.7128   -0.4173 C   0  0  0  0  0  0  0  0  0  0  0  0
    0.6557   -0.1786    1.6837 C   0  0  0  0  0  0  0  0  0  0  0  0
    1.8877    0.4462    1.9034 C   0  0  0  0  0  0  0  0  0  0  0  0
    1.1820   -0.5011   -0.6669 C   0  0  0  0  0  0  0  0  0  0  0  0
    4.3561    1.0102   -0.5312 C   0  0  0  0  0  0  0  0  0  0  0  0
   -1.0778   -1.3322    0.2465 C   0  0  0  0  0  0  0  0  0  0  0  0
    0.2838   -0.6642    0.4019 C   0  0  0  0  0  0  0  0  0  0  0  0
    2.7345    0.5787    0.8277 C   0  0  0  0  0  0  0  0  0  0  0  0
    2.3909    0.1194   -0.4207 C   0  0  0  0  0  0  0  0  0  0  0  0
   -2.1940   -0.4080    0.5164 N   0  0  0  0  0  0  0  0  0  0  0  0
    3.9650    1.1566    0.8492 O   0  0  0  0  0  0  0  0  0  0  0  0
    3.3631    0.3512   -1.3443 O   0  0  0  0  0  0  0  0  0  0  0  0
   -4.4162    1.0393   -0.0507 H   0  0  0  0  0  0  0  0  0  0  0  0
   -3.5571    2.4436   -0.7025 H   0  0  0  0  0  0  0  0  0  0  0  0
   -3.3429    1.9909    0.9962 H   0  0  0  0  0  0  0  0  0  0  0  0
   -1.2572   -1.4952   -1.9427 H   0  0  0  0  0  0  0  0  0  0  0  0
   -0.5240   -2.9004   -1.1599 H   0  0  0  0  0  0  0  0  0  0  0  0
   -2.2645   -2.6331   -1.0374 H   0  0  0  0  0  0  0  0  0  0  0  0
   -2.4598    0.3622   -1.4415 H   0  0  0  0  0  0  0  0  0  0  0  0
   -1.3898    1.3247   -0.4041 H   0  0  0  0  0  0  0  0  0  0  0  0
   -0.0393   -0.2837    2.5162 H   0  0  0  0  0  0  0  0  0  0  0  0
    2.1627    0.8170    2.8837 H   0  0  0  0  0  0  0  0  0  0  0  0
    0.9568   -0.8392   -1.6713 H   0  0  0  0  0  0  0  0  0  0  0  0
    4.5464    2.0055   -0.9491 H   0  0  0  0  0  0  0  0  0  0  0  0
    5.2844    0.4288   -0.5727 H   0  0  0  0  0  0  0  0  0  0  0  0
   -1.1172   -2.0848    1.0470 H   0  0  0  0  0  0  0  0  0  0  0  0
   -3.0666   -0.9339    0.5063 H   0  0  0  0  0  0  0  0  0  0  0  0
  1  3  1  0
  2  8  1  0
  3 12  1  0
  4  5  2  0
  4  9  1  0
  5 10  1  0
  6  9  2  0
  6 11  1  0
  7 13  1  0
  7 14  1  0
  8  9  1  0
  8 12  1  0
 10 11  2  0
 10 13  1  0
 11 14  1  0
  1 15  1  0
  1 16  1  0
  1 17  1  0
  2 18  1  0
  2 19  1  0
  2 20  1  0
  3 21  1  0
  3 22  1  0
  4 23  1  0
  5 24  1  0
  6 25  1  0
  7 26  1  0
  7 27  1  0
  8 28  1  0
 12 29  1  0
M  END
