
     RDKit          3D

 30 31  0  0  0  0  0  0  0  0999 V2000
    3.3019   -0.0224   -2.2104 C   0  0  0  0  0  0  0  0  0  0  0  0
    1.3529    0.1035   -0.6418 C   0  0  0  0  0  0  0  0  0  0  0  0
    0.7650   -0.2073    0.7389 C   0  0  0  0  0  0  0  0  0  0  0  0
   -1.2826    1.2704    0.9466 C   0  0  0  0  0  0  0  0  0  0  0  0
   -2.6669    1.4691    0.9534 C   0  0  0  0  0  0  0  0  0  0  0  0
   -1.5882   -1.1160    0.5679 C   0  0  0  0  0  0  0  0  0  0  0  0
   -5.1034   -1.0265    0.5187 C   0  0  0  0  0  0  0  0  0  0  0  0
    2.8562   -0.2208   -0.7567 C   0  0  0  0  0  0  0  0  0  0  0  0
   -0.7336   -0.0189    0.7595 C   0  0  0  0  0  0  0  0  0  0  0  0
   -3.4729    0.3679    0.7677 C   0  0  0  0  0  0  0  0  0  0  0  0
   -2.9485   -0.8888    0.5796 C   0  0  0  0  0  0  0  0  0  0  0  0
    3.6415    0.6453    0.1366 N   0  0  0  0  0  0  0  0  0  0  0  0
    5.0322    0.2136    0.1770 O   0  0  0  0  0  0  0  0  0  0  0  0
   -4.8324    0.3724    0.7432 O   0  0  0  0  0  0  0  0  0  0  0  0
   -3.9123   -1.8338    0.4120 O   0  0  0  0  0  0  0  0  0  0  0  0
    4.3524   -0.2934   -2.3566 H   0  0  0  0  0  0  0  0  0  0  0  0
    3.1755    1.0190   -2.5276 H   0  0  0  0  0  0  0  0  0  0  0  0
    2.7092   -0.6514   -2.8839 H   0  0  0  0  0  0  0  0  0  0  0  0
    0.8092   -0.4802   -1.3973 H   0  0  0  0  0  0  0  0  0  0  0  0
    1.1773    1.1592   -0.8901 H   0  0  0  0  0  0  0  0  0  0  0  0
    1.2078    0.4360    1.5084 H   0  0  0  0  0  0  0  0  0  0  0  0
    1.0068   -1.2380    1.0274 H   0  0  0  0  0  0  0  0  0  0  0  0
   -0.6245    2.1264    1.0863 H   0  0  0  0  0  0  0  0  0  0  0  0
   -3.0925    2.4555    1.0976 H   0  0  0  0  0  0  0  0  0  0  0  0
   -1.2029   -2.1179    0.4133 H   0  0  0  0  0  0  0  0  0  0  0  0
   -5.7091   -1.4041    1.3507 H   0  0  0  0  0  0  0  0  0  0  0  0
   -5.6790   -1.1275   -0.4086 H   0  0  0  0  0  0  0  0  0  0  0  0
    3.0075   -1.2714   -0.4781 H   0  0  0  0  0  0  0  0  0  0  0  0
    3.3567    0.5204    1.1100 H   0  0  0  0  0  0  0  0  0  0  0  0
    5.0970   -0.6079   -0.3438 H   0  0  0  0  0  0  0  0  0  0  0  0
  1  8  1  0
  2  3  1  0
  2  8  1  0
  3  9  1  0
  4  5  2  0
  4  9  1  0
  5 10  1  0
  6  9  2  0
  6 11  1  0
  7 14  1  0
  7 15  1  0
  8 12  1  0
 10 11  2  0
 10 14  1  0
 11 15  1  0
 12 13  1  0
  1 16  1  0
  1 17  1  0
  1 18  1  0
  2 19  1  0
  2 20  1  0
  3 21  1  0
  3 22  1  0
  4 23  1  0
  5 24  1  0
  6 25  1  0
  7 26  1  0
  7 27  1  0
  8 28  1  0
 12 29  1  0
 13 30  1  0
M  END
