
     RDKit          3D

 29 29  0  0  0  0  0  0  0  0999 V2000
    3.9238   -1.6112   -0.3924 C   0  0  0  0  0  0  0  0  0  0  0  0
    2.0829   -0.2696   -1.4613 C   0  0  0  0  0  0  0  0  0  0  0  0
    1.8407   -0.9267    0.8413 C   0  0  0  0  0  0  0  0  0  0  0  0
    0.8369    0.3611   -1.4095 C   0  0  0  0  0  0  0  0  0  0  0  0
    0.5936   -0.2963    0.8927 C   0  0  0  0  0  0  0  0  0  0  0  0
   -2.3620    0.0856   -0.8037 C   0  0  0  0  0  0  0  0  0  0  0  0
   -1.7521    1.6713    1.1082 C   0  0  0  0  0  0  0  0  0  0  0  0
    2.6013   -0.9077   -0.3314 C   0  0  0  0  0  0  0  0  0  0  0  0
    0.0756    0.3637   -0.2292 C   0  0  0  0  0  0  0  0  0  0  0  0
   -1.2940    1.0342   -0.2298 C   0  0  0  0  0  0  0  0  0  0  0  0
   -2.5709   -1.1636    0.0081 C   0  0  0  0  0  0  0  0  0  0  0  0
   -0.8753    2.7588    1.5472 N   0  0  0  0  0  0  0  0  0  0  0  0
   -2.8163   -1.2266    1.2010 O   0  0  0  0  0  0  0  0  0  0  0  0
   -2.5094   -2.2835   -0.7369 O   0  0  0  0  0  0  0  0  0  0  0  0
    3.7806   -2.6513   -0.7011 H   0  0  0  0  0  0  0  0  0  0  0  0
    4.4196   -1.5966    0.5839 H   0  0  0  0  0  0  0  0  0  0  0  0
    4.5954   -1.1200   -1.1044 H   0  0  0  0  0  0  0  0  0  0  0  0
    2.6462   -0.2569   -2.3914 H   0  0  0  0  0  0  0  0  0  0  0  0
    2.2139   -1.4307    1.7300 H   0  0  0  0  0  0  0  0  0  0  0  0
    0.4623    0.8518   -2.3052 H   0  0  0  0  0  0  0  0  0  0  0  0
    0.0376   -0.3322    1.8264 H   0  0  0  0  0  0  0  0  0  0  0  0
   -2.0820   -0.2045   -1.8248 H   0  0  0  0  0  0  0  0  0  0  0  0
   -3.3309    0.5926   -0.8829 H   0  0  0  0  0  0  0  0  0  0  0  0
   -1.8069    0.9349    1.9142 H   0  0  0  0  0  0  0  0  0  0  0  0
   -2.7613    2.0815    0.9832 H   0  0  0  0  0  0  0  0  0  0  0  0
   -1.2264    1.8727   -0.9404 H   0  0  0  0  0  0  0  0  0  0  0  0
   -0.8145    3.4752    0.8262 H   0  0  0  0  0  0  0  0  0  0  0  0
   -1.2715    3.2034    2.3736 H   0  0  0  0  0  0  0  0  0  0  0  0
   -2.6369   -3.0093   -0.0912 H   0  0  0  0  0  0  0  0  0  0  0  0
  1  8  1  0
  2  4  2  0
  2  8  1  0
  3  5  1  0
  3  8  2  0
  4  9  1  0
  5  9  2  0
  6 10  1  0
  6 11  1  0
  7 10  1  0
  7 12  1  0
  9 10  1  0
 11 13  2  0
 11 14  1  0
  1 15  1  0
  1 16  1  0
  1 17  1  0
  2 18  1  0
  3 19  1  0
  4 20  1  0
  5 21  1  0
  6 22  1  0
  6 23  1  0
  7 24  1  0
  7 25  1  0
 10 26  1  0
 12 27  1  0
 12 28  1  0
 14 29  1  0
M  END
