
     RDKit          3D

 31 31  0  0  0  0  0  0  0  0999 V2000
   -4.1168   -0.8555   -0.1003 C   0  0  0  0  0  0  0  0  0  0  0  0
    1.4777    3.5647    0.1680 C   0  0  0  0  0  0  0  0  0  0  0  0
    3.9459   -2.2164    1.0763 C   0  0  0  0  0  0  0  0  0  0  0  0
   -1.7231   -0.3768   -0.7275 C   0  0  0  0  0  0  0  0  0  0  0  0
    0.2782    1.0143   -0.1454 C   0  0  0  0  0  0  0  0  0  0  0  0
    2.3819    0.0708    0.5552 C   0  0  0  0  0  0  0  0  0  0  0  0
   -2.7185   -0.5573    0.4395 C   0  0  0  0  0  0  0  0  0  0  0  0
   -0.2742   -0.2741   -0.2869 C   0  0  0  0  0  0  0  0  0  0  0  0
    1.5956    1.1900    0.2727 C   0  0  0  0  0  0  0  0  0  0  0  0
    1.8677   -1.2234    0.4255 C   0  0  0  0  0  0  0  0  0  0  0  0
    0.5330   -1.3922    0.0042 C   0  0  0  0  0  0  0  0  0  0  0  0
   -0.1638   -3.1655   -0.1736 Br  0  0  0  0  0  0  0  0  0  0  0  0
   -2.7884    0.6455    1.2817 N   0  0  0  0  0  0  0  0  0  0  0  0
    2.2294    2.3899    0.4485 O   0  0  0  0  0  0  0  0  0  0  0  0
    2.5858   -2.3628    0.6900 O   0  0  0  0  0  0  0  0  0  0  0  0
   -4.4881   -0.0383   -0.7290 H   0  0  0  0  0  0  0  0  0  0  0  0
   -4.1105   -1.7693   -0.7042 H   0  0  0  0  0  0  0  0  0  0  0  0
   -4.8314   -1.0057    0.7167 H   0  0  0  0  0  0  0  0  0  0  0  0
    2.1255    4.4273    0.3517 H   0  0  0  0  0  0  0  0  0  0  0  0
    1.1715    3.5961   -0.8828 H   0  0  0  0  0  0  0  0  0  0  0  0
    0.6139    3.6490    0.8358 H   0  0  0  0  0  0  0  0  0  0  0  0
    4.5301   -1.7270    0.2902 H   0  0  0  0  0  0  0  0  0  0  0  0
    4.3607   -3.2184    1.2228 H   0  0  0  0  0  0  0  0  0  0  0  0
    4.0301   -1.6802    2.0272 H   0  0  0  0  0  0  0  0  0  0  0  0
   -1.9914    0.5198   -1.3045 H   0  0  0  0  0  0  0  0  0  0  0  0
   -1.8253   -1.1974   -1.4482 H   0  0  0  0  0  0  0  0  0  0  0  0
   -0.3555    1.8700   -0.3638 H   0  0  0  0  0  0  0  0  0  0  0  0
    3.4024    0.2474    0.8795 H   0  0  0  0  0  0  0  0  0  0  0  0
   -2.4093   -1.3958    1.0734 H   0  0  0  0  0  0  0  0  0  0  0  0
   -1.8827    0.7855    1.7315 H   0  0  0  0  0  0  0  0  0  0  0  0
   -3.4504    0.4859    2.0411 H   0  0  0  0  0  0  0  0  0  0  0  0
  1  7  1  0
  2 14  1  0
  3 15  1  0
  4  7  1  0
  4  8  1  0
  5  8  2  0
  5  9  1  0
  6  9  2  0
  6 10  1  0
  7 13  1  0
  8 11  1  0
  9 14  1  0
 10 11  2  0
 10 15  1  0
 11 12  1  0
  1 16  1  0
  1 17  1  0
  1 18  1  0
  2 19  1  0
  2 20  1  0
  2 21  1  0
  3 22  1  0
  3 23  1  0
  3 24  1  0
  4 25  1  0
  4 26  1  0
  5 27  1  0
  6 28  1  0
  7 29  1  0
 13 30  1  0
 13 31  1  0
M  END
