
     RDKit          3D

 31 31  0  0  0  0  0  0  0  0999 V2000
    2.3271    1.1533    0.4662 C   0  0  0  0  0  0  0  0  0  0  0  0
   -0.3143   -3.7790    0.1718 C   0  0  0  0  0  0  0  0  0  0  0  0
   -1.4834    3.3416   -0.1910 C   0  0  0  0  0  0  0  0  0  0  0  0
    0.8322   -0.0096   -1.2560 C   0  0  0  0  0  0  0  0  0  0  0  0
   -1.8882   -1.5625    0.9382 C   0  0  0  0  0  0  0  0  0  0  0  0
   -2.2823    0.8269    0.8087 C   0  0  0  0  0  0  0  0  0  0  0  0
    2.1699   -0.0341   -0.4861 C   0  0  0  0  0  0  0  0  0  0  0  0
   -2.6362   -0.4372    1.2745 C   0  0  0  0  0  0  0  0  0  0  0  0
   -0.3952   -0.1550   -0.3667 C   0  0  0  0  0  0  0  0  0  0  0  0
   -0.7659   -1.4297    0.1189 C   0  0  0  0  0  0  0  0  0  0  0  0
   -1.1619    0.9775   -0.0111 C   0  0  0  0  0  0  0  0  0  0  0  0
   -4.1562   -0.6276    2.3875 Br  0  0  0  0  0  0  0  0  0  0  0  0
    3.2902   -0.0256   -1.4425 N   0  0  0  0  0  0  0  0  0  0  0  0
    0.0367   -2.4729   -0.2651 O   0  0  0  0  0  0  0  0  0  0  0  0
   -0.7261    2.1803   -0.5055 O   0  0  0  0  0  0  0  0  0  0  0  0
    3.3069    1.1350    0.9571 H   0  0  0  0  0  0  0  0  0  0  0  0
    2.2343    2.1082   -0.0630 H   0  0  0  0  0  0  0  0  0  0  0  0
    1.5729    1.1277    1.2590 H   0  0  0  0  0  0  0  0  0  0  0  0
   -0.2707   -3.8542    1.2632 H   0  0  0  0  0  0  0  0  0  0  0  0
    0.4210   -4.4774   -0.2390 H   0  0  0  0  0  0  0  0  0  0  0  0
   -1.2989   -4.0714   -0.2075 H   0  0  0  0  0  0  0  0  0  0  0  0
   -2.5028    3.2671   -0.5836 H   0  0  0  0  0  0  0  0  0  0  0  0
   -1.4851    3.5307    0.8874 H   0  0  0  0  0  0  0  0  0  0  0  0
   -1.0018    4.1956   -0.6769 H   0  0  0  0  0  0  0  0  0  0  0  0
    0.7634    0.9044   -1.8599 H   0  0  0  0  0  0  0  0  0  0  0  0
    0.8160   -0.8217   -1.9964 H   0  0  0  0  0  0  0  0  0  0  0  0
   -2.1968   -2.5272    1.3251 H   0  0  0  0  0  0  0  0  0  0  0  0
   -2.8908    1.6760    1.0995 H   0  0  0  0  0  0  0  0  0  0  0  0
    2.2433   -0.9580    0.0987 H   0  0  0  0  0  0  0  0  0  0  0  0
    4.1709   -0.0246   -0.9299 H   0  0  0  0  0  0  0  0  0  0  0  0
    3.2721    0.8433   -1.9756 H   0  0  0  0  0  0  0  0  0  0  0  0
  1  7  1  0
  2 14  1  0
  3 15  1  0
  4  7  1  0
  4  9  1  0
  5  8  2  0
  5 10  1  0
  6  8  1  0
  6 11  2  0
  7 13  1  0
  8 12  1  0
  9 10  2  0
  9 11  1  0
 10 14  1  0
 11 15  1  0
  1 16  1  0
  1 17  1  0
  1 18  1  0
  2 19  1  0
  2 20  1  0
  2 21  1  0
  3 22  1  0
  3 23  1  0
  3 24  1  0
  4 25  1  0
  4 26  1  0
  5 27  1  0
  6 28  1  0
  7 29  1  0
 13 30  1  0
 13 31  1  0
M  END
