
     RDKit          3D

 31 31  0  0  0  0  0  0  0  0999 V2000
   -2.7487    0.8635    1.1867 C   0  0  0  0  0  0  0  0  0  0  0  0
    1.6609   -2.3720   -0.4093 C   0  0  0  0  0  0  0  0  0  0  0  0
    3.2028    0.3654    1.4726 C   0  0  0  0  0  0  0  0  0  0  0  0
   -0.4645    1.5009   -1.4817 C   0  0  0  0  0  0  0  0  0  0  0  0
    0.6943    2.2628   -1.6428 C   0  0  0  0  0  0  0  0  0  0  0  0
   -1.6921   -0.5443   -0.6622 C   0  0  0  0  0  0  0  0  0  0  0  0
   -2.2637   -0.5265    0.7726 C   0  0  0  0  0  0  0  0  0  0  0  0
   -0.4203    0.2598   -0.8281 C   0  0  0  0  0  0  0  0  0  0  0  0
    1.9090    1.8037   -1.1323 C   0  0  0  0  0  0  0  0  0  0  0  0
    0.8141   -0.2103   -0.3456 C   0  0  0  0  0  0  0  0  0  0  0  0
    1.9698    0.5812   -0.4548 C   0  0  0  0  0  0  0  0  0  0  0  0
    3.4483    2.8883   -1.3702 Br  0  0  0  0  0  0  0  0  0  0  0  0
   -3.3983   -1.4559    0.8838 N   0  0  0  0  0  0  0  0  0  0  0  0
    0.8206   -1.4380    0.2710 O   0  0  0  0  0  0  0  0  0  0  0  0
    3.1689    0.1531    0.0595 O   0  0  0  0  0  0  0  0  0  0  0  0
   -3.1991    0.8391    2.1857 H   0  0  0  0  0  0  0  0  0  0  0  0
   -1.9186    1.5761    1.2262 H   0  0  0  0  0  0  0  0  0  0  0  0
   -3.4982    1.2533    0.4888 H   0  0  0  0  0  0  0  0  0  0  0  0
    1.2598   -3.3732   -0.2239 H   0  0  0  0  0  0  0  0  0  0  0  0
    1.6758   -2.2130   -1.4939 H   0  0  0  0  0  0  0  0  0  0  0  0
    2.6755   -2.3409   -0.0023 H   0  0  0  0  0  0  0  0  0  0  0  0
    2.5301   -0.3230    1.9938 H   0  0  0  0  0  0  0  0  0  0  0  0
    4.2221    0.1625    1.8148 H   0  0  0  0  0  0  0  0  0  0  0  0
    2.9599    1.4024    1.7308 H   0  0  0  0  0  0  0  0  0  0  0  0
   -1.4054    1.8835   -1.8730 H   0  0  0  0  0  0  0  0  0  0  0  0
    0.6370    3.2169   -2.1612 H   0  0  0  0  0  0  0  0  0  0  0  0
   -1.4845   -1.5778   -0.9715 H   0  0  0  0  0  0  0  0  0  0  0  0
   -2.4510   -0.1818   -1.3691 H   0  0  0  0  0  0  0  0  0  0  0  0
   -1.4998   -0.8505    1.4881 H   0  0  0  0  0  0  0  0  0  0  0  0
   -3.0871   -2.3963    0.6421 H   0  0  0  0  0  0  0  0  0  0  0  0
   -4.1176   -1.2090    0.2055 H   0  0  0  0  0  0  0  0  0  0  0  0
  1  7  1  0
  2 14  1  0
  3 15  1  0
  4  5  2  0
  4  8  1  0
  5  9  1  0
  6  7  1  0
  6  8  1  0
  7 13  1  0
  8 10  2  0
  9 11  2  0
  9 12  1  0
 10 11  1  0
 10 14  1  0
 11 15  1  0
  1 16  1  0
  1 17  1  0
  1 18  1  0
  2 19  1  0
  2 20  1  0
  2 21  1  0
  3 22  1  0
  3 23  1  0
  3 24  1  0
  4 25  1  0
  5 26  1  0
  6 27  1  0
  6 28  1  0
  7 29  1  0
 13 30  1  0
 13 31  1  0
M  END
