
     RDKit          3D

 31 31  0  0  0  0  0  0  0  0999 V2000
   -4.0490   -0.1634    0.1562 C   0  0  0  0  0  0  0  0  0  0  0  0
    4.6303   -1.4214   -0.1277 C   0  0  0  0  0  0  0  0  0  0  0  0
   -0.2085    3.0707    0.7236 C   0  0  0  0  0  0  0  0  0  0  0  0
    0.5610   -0.8481   -1.0865 C   0  0  0  0  0  0  0  0  0  0  0  0
    1.9204   -1.0268   -0.8115 C   0  0  0  0  0  0  0  0  0  0  0  0
   -1.6872    0.1978   -0.6471 C   0  0  0  0  0  0  0  0  0  0  0  0
   -2.5750   -0.4526    0.4380 C   0  0  0  0  0  0  0  0  0  0  0  0
   -0.2025    0.0831   -0.3703 C   0  0  0  0  0  0  0  0  0  0  0  0
    2.5450   -0.2944    0.2025 C   0  0  0  0  0  0  0  0  0  0  0  0
    1.7898    0.6463    0.9264 C   0  0  0  0  0  0  0  0  0  0  0  0
    0.4346    0.8592    0.6129 C   0  0  0  0  0  0  0  0  0  0  0  0
    2.5993    1.5976    2.3733 Br  0  0  0  0  0  0  0  0  0  0  0  0
   -2.3973   -1.9096    0.5084 N   0  0  0  0  0  0  0  0  0  0  0  0
    3.8656   -0.4310    0.5459 O   0  0  0  0  0  0  0  0  0  0  0  0
   -0.3190    1.7719    1.3120 O   0  0  0  0  0  0  0  0  0  0  0  0
   -4.3610   -0.5667   -0.8139 H   0  0  0  0  0  0  0  0  0  0  0  0
   -4.2358    0.9159    0.1481 H   0  0  0  0  0  0  0  0  0  0  0  0
   -4.6906   -0.6035    0.9280 H   0  0  0  0  0  0  0  0  0  0  0  0
    4.2151   -2.4213    0.0358 H   0  0  0  0  0  0  0  0  0  0  0  0
    4.7135   -1.1955   -1.1957 H   0  0  0  0  0  0  0  0  0  0  0  0
    5.6400   -1.4080    0.2941 H   0  0  0  0  0  0  0  0  0  0  0  0
    0.8057    3.4712    0.8139 H   0  0  0  0  0  0  0  0  0  0  0  0
   -0.5115    3.0637   -0.3289 H   0  0  0  0  0  0  0  0  0  0  0  0
   -0.8846    3.7391    1.2649 H   0  0  0  0  0  0  0  0  0  0  0  0
    0.0989   -1.4552   -1.8630 H   0  0  0  0  0  0  0  0  0  0  0  0
    2.4594   -1.7615   -1.4011 H   0  0  0  0  0  0  0  0  0  0  0  0
   -1.9473    1.2578   -0.7534 H   0  0  0  0  0  0  0  0  0  0  0  0
   -1.9131   -0.2471   -1.6261 H   0  0  0  0  0  0  0  0  0  0  0  0
   -2.3300   -0.0372    1.4222 H   0  0  0  0  0  0  0  0  0  0  0  0
   -2.5361   -2.3214   -0.4124 H   0  0  0  0  0  0  0  0  0  0  0  0
   -1.4303   -2.1098    0.7670 H   0  0  0  0  0  0  0  0  0  0  0  0
  1  7  1  0
  2 14  1  0
  3 15  1  0
  4  5  2  0
  4  8  1  0
  5  9  1  0
  6  7  1  0
  6  8  1  0
  7 13  1  0
  8 11  2  0
  9 10  2  0
  9 14  1  0
 10 11  1  0
 10 12  1  0
 11 15  1  0
  1 16  1  0
  1 17  1  0
  1 18  1  0
  2 19  1  0
  2 20  1  0
  2 21  1  0
  3 22  1  0
  3 23  1  0
  3 24  1  0
  4 25  1  0
  5 26  1  0
  6 27  1  0
  6 28  1  0
  7 29  1  0
 13 30  1  0
 13 31  1  0
M  END
