
     RDKit          3D

 29 29  0  0  0  0  0  0  0  0999 V2000
   -4.3791    0.3502   -0.3183 C   0  0  0  0  0  0  0  0  0  0  0  0
   -0.6132   -0.9652    1.5440 C   0  0  0  0  0  0  0  0  0  0  0  0
   -2.9686   -0.2109   -0.1985 C   0  0  0  0  0  0  0  0  0  0  0  0
    3.6726    1.2208    0.0847 C   0  0  0  0  0  0  0  0  0  0  0  0
    2.2879    1.2941   -0.0804 C   0  0  0  0  0  0  0  0  0  0  0  0
    4.3362    0.0104   -0.1121 C   0  0  0  0  0  0  0  0  0  0  0  0
    0.0511    0.2372   -0.6147 C   0  0  0  0  0  0  0  0  0  0  0  0
    2.2276   -1.0557   -0.6408 C   0  0  0  0  0  0  0  0  0  0  0  0
   -0.7251    0.3238    0.7215 C   0  0  0  0  0  0  0  0  0  0  0  0
    1.5516    0.1571   -0.4442 C   0  0  0  0  0  0  0  0  0  0  0  0
    3.6112   -1.1226   -0.4740 C   0  0  0  0  0  0  0  0  0  0  0  0
    4.4285   -2.6178   -0.7161 Cl  0  0  0  0  0  0  0  0  0  0  0  0
   -2.1319    0.7323    0.5398 N   0  0  0  0  0  0  0  0  0  0  0  0
   -4.8238    0.5183    0.6685 H   0  0  0  0  0  0  0  0  0  0  0  0
   -4.3844    1.2997   -0.8643 H   0  0  0  0  0  0  0  0  0  0  0  0
   -5.0193   -0.3530   -0.8607 H   0  0  0  0  0  0  0  0  0  0  0  0
    0.4170   -1.1254    1.8789 H   0  0  0  0  0  0  0  0  0  0  0  0
   -1.2369   -0.9112    2.4434 H   0  0  0  0  0  0  0  0  0  0  0  0
   -0.9163   -1.8462    0.9688 H   0  0  0  0  0  0  0  0  0  0  0  0
   -3.0258   -1.1735    0.3193 H   0  0  0  0  0  0  0  0  0  0  0  0
   -2.5769   -0.3839   -1.2059 H   0  0  0  0  0  0  0  0  0  0  0  0
    4.2337    2.1082    0.3673 H   0  0  0  0  0  0  0  0  0  0  0  0
    1.7853    2.2467    0.0766 H   0  0  0  0  0  0  0  0  0  0  0  0
    5.4135   -0.0427    0.0178 H   0  0  0  0  0  0  0  0  0  0  0  0
   -0.2931   -0.6233   -1.2023 H   0  0  0  0  0  0  0  0  0  0  0  0
   -0.1655    1.1222   -1.2285 H   0  0  0  0  0  0  0  0  0  0  0  0
    1.6764   -1.9504   -0.9206 H   0  0  0  0  0  0  0  0  0  0  0  0
   -0.2729    1.1185    1.3289 H   0  0  0  0  0  0  0  0  0  0  0  0
   -2.1600    1.6420    0.0790 H   0  0  0  0  0  0  0  0  0  0  0  0
  1  3  1  0
  2  9  1  0
  3 13  1  0
  4  5  2  0
  4  6  1  0
  5 10  1  0
  6 11  2  0
  7  9  1  0
  7 10  1  0
  8 10  2  0
  8 11  1  0
  9 13  1  0
 11 12  1  0
  1 14  1  0
  1 15  1  0
  1 16  1  0
  2 17  1  0
  2 18  1  0
  2 19  1  0
  3 20  1  0
  3 21  1  0
  4 22  1  0
  5 23  1  0
  6 24  1  0
  7 25  1  0
  7 26  1  0
  8 27  1  0
  9 28  1  0
 13 29  1  0
M  END
