
     RDKit          3D

 32 32  0  0  0  0  0  0  0  0999 V2000
   -1.4563    2.7180   -1.9825 C   0  0  0  0  0  0  0  0  0  0  0  0
   -2.7844   -1.6639   -1.4049 C   0  0  0  0  0  0  0  0  0  0  0  0
   -2.0881   -1.9606    2.5327 C   0  0  0  0  0  0  0  0  0  0  0  0
    2.4920    1.0044    0.8488 C   0  0  0  0  0  0  0  0  0  0  0  0
    3.4838    0.6791   -0.2793 C   0  0  0  0  0  0  0  0  0  0  0  0
    0.2600    1.2456   -0.2751 C   0  0  0  0  0  0  0  0  0  0  0  0
    1.0851    0.5004    0.5959 C   0  0  0  0  0  0  0  0  0  0  0  0
   -1.0397    0.8308   -0.5809 C   0  0  0  0  0  0  0  0  0  0  0  0
    0.5783   -0.6814    1.1692 C   0  0  0  0  0  0  0  0  0  0  0  0
   -1.5210   -0.3556   -0.0100 C   0  0  0  0  0  0  0  0  0  0  0  0
   -0.7339   -1.0906    0.8876 C   0  0  0  0  0  0  0  0  0  0  0  0
    1.5474   -1.6407    2.2442 Cl  0  0  0  0  0  0  0  0  0  0  0  0
    3.6537   -0.7519   -0.5067 N   0  0  0  0  0  0  0  0  0  0  0  0
   -1.8991    1.4914   -1.4192 O   0  0  0  0  0  0  0  0  0  0  0  0
   -2.8030   -0.7715   -0.2907 O   0  0  0  0  0  0  0  0  0  0  0  0
   -1.2207   -2.2549    1.4370 O   0  0  0  0  0  0  0  0  0  0  0  0
   -0.5913    2.5620   -2.6354 H   0  0  0  0  0  0  0  0  0  0  0  0
   -1.2371    3.4553   -1.2032 H   0  0  0  0  0  0  0  0  0  0  0  0
   -2.2690    3.1163   -2.5975 H   0  0  0  0  0  0  0  0  0  0  0  0
   -3.8172   -1.9591   -1.6131 H   0  0  0  0  0  0  0  0  0  0  0  0
   -2.3855   -1.1764   -2.3013 H   0  0  0  0  0  0  0  0  0  0  0  0
   -2.2133   -2.5711   -1.1801 H   0  0  0  0  0  0  0  0  0  0  0  0
   -3.0401   -1.5470    2.1860 H   0  0  0  0  0  0  0  0  0  0  0  0
   -2.3000   -2.9007    3.0509 H   0  0  0  0  0  0  0  0  0  0  0  0
   -1.6168   -1.2792    3.2502 H   0  0  0  0  0  0  0  0  0  0  0  0
    2.8811    0.6401    1.8058 H   0  0  0  0  0  0  0  0  0  0  0  0
    2.4483    2.0955    0.9698 H   0  0  0  0  0  0  0  0  0  0  0  0
    4.4568    1.1137   -0.0238 H   0  0  0  0  0  0  0  0  0  0  0  0
    3.1572    1.1451   -1.2156 H   0  0  0  0  0  0  0  0  0  0  0  0
    0.6688    2.1516   -0.7130 H   0  0  0  0  0  0  0  0  0  0  0  0
    4.4510   -0.9159   -1.1187 H   0  0  0  0  0  0  0  0  0  0  0  0
    3.8530   -1.2287    0.3728 H   0  0  0  0  0  0  0  0  0  0  0  0
  1 14  1  0
  2 15  1  0
  3 16  1  0
  4  5  1  0
  4  7  1  0
  5 13  1  0
  6  7  2  0
  6  8  1  0
  7  9  1  0
  8 10  2  0
  8 14  1  0
  9 11  2  0
  9 12  1  0
 10 11  1  0
 10 15  1  0
 11 16  1  0
  1 17  1  0
  1 18  1  0
  1 19  1  0
  2 20  1  0
  2 21  1  0
  2 22  1  0
  3 23  1  0
  3 24  1  0
  3 25  1  0
  4 26  1  0
  4 27  1  0
  5 28  1  0
  5 29  1  0
  6 30  1  0
 13 31  1  0
 13 32  1  0
M  END
