
     RDKit          3D

 31 31  0  0  0  0  0  0  0  0999 V2000
    1.4513   -2.2373   -0.5829 C   0  0  0  0  0  0  0  0  0  0  0  0
    1.3436    3.2684    1.2917 C   0  0  0  0  0  0  0  0  0  0  0  0
   -1.9702   -2.4128   -0.7184 C   0  0  0  0  0  0  0  0  0  0  0  0
   -2.3926    1.8534   -0.0266 C   0  0  0  0  0  0  0  0  0  0  0  0
   -1.1515    2.3391    0.3834 C   0  0  0  0  0  0  0  0  0  0  0  0
    0.6421   -0.8741    1.4393 C   0  0  0  0  0  0  0  0  0  0  0  0
    1.8340   -1.2643    0.5251 C   0  0  0  0  0  0  0  0  0  0  0  0
   -0.4131    0.0706    0.8826 C   0  0  0  0  0  0  0  0  0  0  0  0
   -2.6650    0.4857    0.0261 C   0  0  0  0  0  0  0  0  0  0  0  0
   -0.1702    1.4656    0.8610 C   0  0  0  0  0  0  0  0  0  0  0  0
   -1.6680   -0.4131    0.4414 C   0  0  0  0  0  0  0  0  0  0  0  0
   -4.6342   -0.0855   -0.4317 I   0  0  0  0  0  0  0  0  0  0  0  0
    2.5328   -0.1331   -0.0887 N   0  0  0  0  0  0  0  0  0  0  0  0
    1.0394    1.8809    1.3652 O   0  0  0  0  0  0  0  0  0  0  0  0
   -1.9111   -1.7612    0.5521 O   0  0  0  0  0  0  0  0  0  0  0  0
    0.9674   -3.1260   -0.1662 H   0  0  0  0  0  0  0  0  0  0  0  0
    0.7763   -1.7771   -1.3108 H   0  0  0  0  0  0  0  0  0  0  0  0
    2.3396   -2.5788   -1.1273 H   0  0  0  0  0  0  0  0  0  0  0  0
    1.3448    3.6196    0.2545 H   0  0  0  0  0  0  0  0  0  0  0  0
    2.3529    3.4090    1.6903 H   0  0  0  0  0  0  0  0  0  0  0  0
    0.6577    3.8552    1.9113 H   0  0  0  0  0  0  0  0  0  0  0  0
   -1.3259   -3.2953   -0.6778 H   0  0  0  0  0  0  0  0  0  0  0  0
   -2.9889   -2.7681   -0.8966 H   0  0  0  0  0  0  0  0  0  0  0  0
   -1.6466   -1.7826   -1.5549 H   0  0  0  0  0  0  0  0  0  0  0  0
   -3.1488    2.5629   -0.3544 H   0  0  0  0  0  0  0  0  0  0  0  0
   -0.9967    3.4123    0.3475 H   0  0  0  0  0  0  0  0  0  0  0  0
    1.0460   -0.4165    2.3538 H   0  0  0  0  0  0  0  0  0  0  0  0
    0.1651   -1.7934    1.8026 H   0  0  0  0  0  0  0  0  0  0  0  0
    2.5553   -1.7786    1.1738 H   0  0  0  0  0  0  0  0  0  0  0  0
    3.5045   -0.3775   -0.2645 H   0  0  0  0  0  0  0  0  0  0  0  0
    2.5300    0.6526    0.5648 H   0  0  0  0  0  0  0  0  0  0  0  0
  1  7  1  0
  2 14  1  0
  3 15  1  0
  4  5  2  0
  4  9  1  0
  5 10  1  0
  6  7  1  0
  6  8  1  0
  7 13  1  0
  8 10  2  0
  8 11  1  0
  9 11  2  0
  9 12  1  0
 10 14  1  0
 11 15  1  0
  1 16  1  0
  1 17  1  0
  1 18  1  0
  2 19  1  0
  2 20  1  0
  2 21  1  0
  3 22  1  0
  3 23  1  0
  3 24  1  0
  4 25  1  0
  5 26  1  0
  6 27  1  0
  6 28  1  0
  7 29  1  0
 13 30  1  0
 13 31  1  0
M  END
