
     RDKit          3D

 29 29  0  0  0  0  0  0  0  0999 V2000
   -3.2454   -2.3813    0.0180 C   0  0  0  0  0  0  0  0  0  0  0  0
   -0.4169    2.7119   -0.1196 C   0  0  0  0  0  0  0  0  0  0  0  0
    4.2953   -0.4449   -0.5213 C   0  0  0  0  0  0  0  0  0  0  0  0
   -3.1088    0.0648   -0.5479 C   0  0  0  0  0  0  0  0  0  0  0  0
   -2.4204    1.2789   -0.5716 C   0  0  0  0  0  0  0  0  0  0  0  0
    0.9201    0.2494    1.0057 C   0  0  0  0  0  0  0  0  0  0  0  0
    1.9515   -0.1238   -0.0682 C   0  0  0  0  0  0  0  0  0  0  0  0
   -1.1985   -0.9877    0.4712 C   0  0  0  0  0  0  0  0  0  0  0  0
   -2.4983   -1.0824   -0.0393 C   0  0  0  0  0  0  0  0  0  0  0  0
   -1.1088    1.3766   -0.0817 C   0  0  0  0  0  0  0  0  0  0  0  0
   -0.4924    0.2304    0.4588 C   0  0  0  0  0  0  0  0  0  0  0  0
    3.3078   -0.0986    0.4926 N   0  0  0  0  0  0  0  0  0  0  0  0
   -3.7762   -2.4661    0.9712 H   0  0  0  0  0  0  0  0  0  0  0  0
   -2.5608   -3.2300   -0.0834 H   0  0  0  0  0  0  0  0  0  0  0  0
   -3.9716   -2.4515   -0.7987 H   0  0  0  0  0  0  0  0  0  0  0  0
   -0.9950    3.4472   -0.6897 H   0  0  0  0  0  0  0  0  0  0  0  0
   -0.2917    3.1007    0.8959 H   0  0  0  0  0  0  0  0  0  0  0  0
    0.5608    2.6284   -0.6035 H   0  0  0  0  0  0  0  0  0  0  0  0
    4.1315   -1.4539   -0.9136 H   0  0  0  0  0  0  0  0  0  0  0  0
    4.2787    0.2696   -1.3506 H   0  0  0  0  0  0  0  0  0  0  0  0
    5.2964   -0.4136   -0.0802 H   0  0  0  0  0  0  0  0  0  0  0  0
   -4.1259    0.0237   -0.9304 H   0  0  0  0  0  0  0  0  0  0  0  0
   -2.9210    2.1557   -0.9771 H   0  0  0  0  0  0  0  0  0  0  0  0
    0.9848   -0.4531    1.8478 H   0  0  0  0  0  0  0  0  0  0  0  0
    1.1491    1.2327    1.4335 H   0  0  0  0  0  0  0  0  0  0  0  0
    1.8836    0.5823   -0.9045 H   0  0  0  0  0  0  0  0  0  0  0  0
    1.7287   -1.1234   -0.4623 H   0  0  0  0  0  0  0  0  0  0  0  0
   -0.7257   -1.8760    0.8872 H   0  0  0  0  0  0  0  0  0  0  0  0
    3.3688   -0.7659    1.2614 H   0  0  0  0  0  0  0  0  0  0  0  0
  1  9  1  0
  2 10  1  0
  3 12  1  0
  4  5  2  0
  4  9  1  0
  5 10  1  0
  6  7  1  0
  6 11  1  0
  7 12  1  0
  8  9  2  0
  8 11  1  0
 10 11  2  0
  1 13  1  0
  1 14  1  0
  1 15  1  0
  2 16  1  0
  2 17  1  0
  2 18  1  0
  3 19  1  0
  3 20  1  0
  3 21  1  0
  4 22  1  0
  5 23  1  0
  6 24  1  0
  6 25  1  0
  7 26  1  0
  7 27  1  0
  8 28  1  0
 12 29  1  0
M  END
