
     RDKit          3D

 31 31  0  0  0  0  0  0  0  0999 V2000
    4.8812    0.0163    0.0423 C   0  0  0  0  0  0  0  0  0  0  0  0
    0.7674   -1.5423   -0.6107 C   0  0  0  0  0  0  0  0  0  0  0  0
    3.5052   -0.1898   -0.5756 C   0  0  0  0  0  0  0  0  0  0  0  0
   -1.6485    1.5746   -0.1657 C   0  0  0  0  0  0  0  0  0  0  0  0
   -2.9641    1.7659   -0.5926 C   0  0  0  0  0  0  0  0  0  0  0  0
    0.1267    0.2535    1.0653 C   0  0  0  0  0  0  0  0  0  0  0  0
   -2.2974   -0.4725    0.9627 C   0  0  0  0  0  0  0  0  0  0  0  0
    1.1034   -0.1466   -0.0704 C   0  0  0  0  0  0  0  0  0  0  0  0
   -1.3027    0.4550    0.6118 C   0  0  0  0  0  0  0  0  0  0  0  0
   -3.9315    0.8385   -0.2398 C   0  0  0  0  0  0  0  0  0  0  0  0
   -3.6050   -0.2728    0.5321 C   0  0  0  0  0  0  0  0  0  0  0  0
    2.4798   -0.1037    0.4659 N   0  0  0  0  0  0  0  0  0  0  0  0
   -5.2182    1.0244   -0.6575 O   0  0  0  0  0  0  0  0  0  0  0  0
   -4.6098   -1.1474    0.8438 O   0  0  0  0  0  0  0  0  0  0  0  0
    4.9641    1.0039    0.5085 H   0  0  0  0  0  0  0  0  0  0  0  0
    5.6550   -0.0574   -0.7286 H   0  0  0  0  0  0  0  0  0  0  0  0
    5.0908   -0.7423    0.8041 H   0  0  0  0  0  0  0  0  0  0  0  0
    0.8729   -2.3065    0.1674 H   0  0  0  0  0  0  0  0  0  0  0  0
   -0.2597   -1.5854   -0.9869 H   0  0  0  0  0  0  0  0  0  0  0  0
    1.4144   -1.8197   -1.4485 H   0  0  0  0  0  0  0  0  0  0  0  0
    3.4900   -1.1713   -1.0592 H   0  0  0  0  0  0  0  0  0  0  0  0
    3.3430    0.5760   -1.3425 H   0  0  0  0  0  0  0  0  0  0  0  0
   -0.8933    2.3076   -0.4415 H   0  0  0  0  0  0  0  0  0  0  0  0
   -3.2311    2.6301   -1.1929 H   0  0  0  0  0  0  0  0  0  0  0  0
    0.4548    1.1955    1.5267 H   0  0  0  0  0  0  0  0  0  0  0  0
    0.1608   -0.4949    1.8687 H   0  0  0  0  0  0  0  0  0  0  0  0
   -2.0384   -1.3396    1.5630 H   0  0  0  0  0  0  0  0  0  0  0  0
    1.0123    0.5832   -0.8850 H   0  0  0  0  0  0  0  0  0  0  0  0
    2.6120    0.7694    0.9778 H   0  0  0  0  0  0  0  0  0  0  0  0
   -5.7046    0.2592   -0.2913 H   0  0  0  0  0  0  0  0  0  0  0  0
   -4.2296   -1.8610    1.3843 H   0  0  0  0  0  0  0  0  0  0  0  0
  1  3  1  0
  2  8  1  0
  3 12  1  0
  4  5  2  0
  4  9  1  0
  5 10  1  0
  6  8  1  0
  6  9  1  0
  7  9  2  0
  7 11  1  0
  8 12  1  0
 10 11  2  0
 10 13  1  0
 11 14  1  0
  1 15  1  0
  1 16  1  0
  1 17  1  0
  2 18  1  0
  2 19  1  0
  2 20  1  0
  3 21  1  0
  3 22  1  0
  4 23  1  0
  5 24  1  0
  6 25  1  0
  6 26  1  0
  7 27  1  0
  8 28  1  0
 12 29  1  0
 13 30  1  0
 14 31  1  0
M  END
