
     RDKit          3D

 31 31  0  0  0  0  0  0  0  0999 V2000
   -3.2440   -1.7769    0.2548 C   0  0  0  0  0  0  0  0  0  0  0  0
    4.4409    0.0146   -1.5002 C   0  0  0  0  0  0  0  0  0  0  0  0
   -2.0992    1.7002   -1.3854 C   0  0  0  0  0  0  0  0  0  0  0  0
    1.8834    1.2733    1.6247 C   0  0  0  0  0  0  0  0  0  0  0  0
    0.5178    1.0133    1.5066 C   0  0  0  0  0  0  0  0  0  0  0  0
    2.7658    0.8863    0.6128 C   0  0  0  0  0  0  0  0  0  0  0  0
    0.9163   -0.0249   -0.6338 C   0  0  0  0  0  0  0  0  0  0  0  0
   -1.8072   -1.4020    0.6375 C   0  0  0  0  0  0  0  0  0  0  0  0
    0.0148    0.3647    0.3715 C   0  0  0  0  0  0  0  0  0  0  0  0
    2.2859    0.2329   -0.5217 C   0  0  0  0  0  0  0  0  0  0  0  0
   -1.4748    0.0774    0.2475 C   0  0  0  0  0  0  0  0  0  0  0  0
   -1.6299   -1.6680    2.0804 N   0  0  0  0  0  0  0  0  0  0  0  0
    3.0379   -0.1996   -1.5797 O   0  0  0  0  0  0  0  0  0  0  0  0
   -1.9153    0.3183   -1.1023 O   0  0  0  0  0  0  0  0  0  0  0  0
   -3.3923   -1.7214   -0.8286 H   0  0  0  0  0  0  0  0  0  0  0  0
   -3.4765   -2.8045    0.5571 H   0  0  0  0  0  0  0  0  0  0  0  0
   -3.9709   -1.1106    0.7325 H   0  0  0  0  0  0  0  0  0  0  0  0
    4.8740   -0.5148   -0.6450 H   0  0  0  0  0  0  0  0  0  0  0  0
    4.6755    1.0836   -1.4645 H   0  0  0  0  0  0  0  0  0  0  0  0
    4.8936   -0.3948   -2.4084 H   0  0  0  0  0  0  0  0  0  0  0  0
   -1.1640    2.2564   -1.2749 H   0  0  0  0  0  0  0  0  0  0  0  0
   -2.8696    2.1244   -0.7344 H   0  0  0  0  0  0  0  0  0  0  0  0
   -2.4344    1.7932   -2.4220 H   0  0  0  0  0  0  0  0  0  0  0  0
    2.2632    1.7734    2.5119 H   0  0  0  0  0  0  0  0  0  0  0  0
   -0.1509    1.3079    2.3120 H   0  0  0  0  0  0  0  0  0  0  0  0
    3.8195    1.1059    0.7443 H   0  0  0  0  0  0  0  0  0  0  0  0
    0.5457   -0.5348   -1.5213 H   0  0  0  0  0  0  0  0  0  0  0  0
   -1.1371   -2.0743    0.0869 H   0  0  0  0  0  0  0  0  0  0  0  0
   -2.0412    0.7434    0.9136 H   0  0  0  0  0  0  0  0  0  0  0  0
   -1.7754   -2.6620    2.2543 H   0  0  0  0  0  0  0  0  0  0  0  0
   -2.3515   -1.1806    2.6093 H   0  0  0  0  0  0  0  0  0  0  0  0
  1  8  1  0
  2 13  1  0
  3 14  1  0
  4  5  2  0
  4  6  1  0
  5  9  1  0
  6 10  2  0
  7  9  2  0
  7 10  1  0
  8 11  1  0
  8 12  1  0
  9 11  1  0
 10 13  1  0
 11 14  1  0
  1 15  1  0
  1 16  1  0
  1 17  1  0
  2 18  1  0
  2 19  1  0
  2 20  1  0
  3 21  1  0
  3 22  1  0
  3 23  1  0
  4 24  1  0
  5 25  1  0
  6 26  1  0
  7 27  1  0
  8 28  1  0
 11 29  1  0
 12 30  1  0
 12 31  1  0
M  END
