
     RDKit          3D

 31 31  0  0  0  0  0  0  0  0999 V2000
   -2.0526   -0.5817   -2.0870 C   0  0  0  0  0  0  0  0  0  0  0  0
    4.2119   -1.2743   -0.1604 C   0  0  0  0  0  0  0  0  0  0  0  0
   -0.9423    3.3945    1.0100 C   0  0  0  0  0  0  0  0  0  0  0  0
    2.2227    0.6862    0.3245 C   0  0  0  0  0  0  0  0  0  0  0  0
    1.1908    1.6105    0.5265 C   0  0  0  0  0  0  0  0  0  0  0  0
    0.6129   -0.9166   -0.4555 C   0  0  0  0  0  0  0  0  0  0  0  0
   -2.3329   -1.7045    0.1604 C   0  0  0  0  0  0  0  0  0  0  0  0
   -1.8812   -0.4165   -0.5715 C   0  0  0  0  0  0  0  0  0  0  0  0
    1.9382   -0.5815   -0.1700 C   0  0  0  0  0  0  0  0  0  0  0  0
   -0.4433   -0.0056   -0.2497 C   0  0  0  0  0  0  0  0  0  0  0  0
   -0.1391    1.2781    0.2435 C   0  0  0  0  0  0  0  0  0  0  0  0
   -2.3432   -1.5589    1.6175 N   0  0  0  0  0  0  0  0  0  0  0  0
    2.8458   -1.5737   -0.4173 O   0  0  0  0  0  0  0  0  0  0  0  0
   -1.1950    2.1359    0.4012 O   0  0  0  0  0  0  0  0  0  0  0  0
   -1.7597    0.3319   -2.6164 H   0  0  0  0  0  0  0  0  0  0  0  0
   -3.0987   -0.7907   -2.3360 H   0  0  0  0  0  0  0  0  0  0  0  0
   -1.4462   -1.4051   -2.4799 H   0  0  0  0  0  0  0  0  0  0  0  0
    4.5611   -0.4499   -0.7909 H   0  0  0  0  0  0  0  0  0  0  0  0
    4.3757   -1.0582    0.9005 H   0  0  0  0  0  0  0  0  0  0  0  0
    4.8018   -2.1603   -0.4144 H   0  0  0  0  0  0  0  0  0  0  0  0
   -0.5226    3.2731    2.0142 H   0  0  0  0  0  0  0  0  0  0  0  0
   -1.8996    3.9149    1.1111 H   0  0  0  0  0  0  0  0  0  0  0  0
   -0.2937    4.0124    0.3805 H   0  0  0  0  0  0  0  0  0  0  0  0
    3.2354    0.9952    0.5599 H   0  0  0  0  0  0  0  0  0  0  0  0
    1.4639    2.5908    0.9030 H   0  0  0  0  0  0  0  0  0  0  0  0
    0.4095   -1.9094   -0.8510 H   0  0  0  0  0  0  0  0  0  0  0  0
   -1.6917   -2.5520   -0.1064 H   0  0  0  0  0  0  0  0  0  0  0  0
   -3.3491   -1.9654   -0.1572 H   0  0  0  0  0  0  0  0  0  0  0  0
   -2.5728    0.3774   -0.2638 H   0  0  0  0  0  0  0  0  0  0  0  0
   -1.4296   -1.2245    1.9265 H   0  0  0  0  0  0  0  0  0  0  0  0
   -2.4763   -2.4720    2.0481 H   0  0  0  0  0  0  0  0  0  0  0  0
  1  8  1  0
  2 13  1  0
  3 14  1  0
  4  5  2  0
  4  9  1  0
  5 11  1  0
  6  9  2  0
  6 10  1  0
  7  8  1  0
  7 12  1  0
  8 10  1  0
  9 13  1  0
 10 11  2  0
 11 14  1  0
  1 15  1  0
  1 16  1  0
  1 17  1  0
  2 18  1  0
  2 19  1  0
  2 20  1  0
  3 21  1  0
  3 22  1  0
  3 23  1  0
  4 24  1  0
  5 25  1  0
  6 26  1  0
  7 27  1  0
  7 28  1  0
  8 29  1  0
 12 30  1  0
 12 31  1  0
M  END
