
     RDKit          3D

 32 32  0  0  0  0  0  0  0  0999 V2000
    4.3502   -0.1664    0.0541 C   0  0  0  0  0  0  0  0  0  0  0  0
   -0.9212   -3.5811   -0.9150 C   0  0  0  0  0  0  0  0  0  0  0  0
    0.7411    3.3378    0.2852 C   0  0  0  0  0  0  0  0  0  0  0  0
   -2.1627    0.3984   -0.4188 C   0  0  0  0  0  0  0  0  0  0  0  0
   -2.8205    0.3229    0.9624 C   0  0  0  0  0  0  0  0  0  0  0  0
    1.0701   -1.6367   -0.4466 C   0  0  0  0  0  0  0  0  0  0  0  0
    1.6351    0.6714   -0.0238 C   0  0  0  0  0  0  0  0  0  0  0  0
    2.0318   -0.6533   -0.2051 C   0  0  0  0  0  0  0  0  0  0  0  0
   -0.6902    0.0285   -0.3533 C   0  0  0  0  0  0  0  0  0  0  0  0
   -0.2863   -1.3116   -0.5172 C   0  0  0  0  0  0  0  0  0  0  0  0
    0.2806    1.0193   -0.0922 C   0  0  0  0  0  0  0  0  0  0  0  0
   -4.2226    0.7449    0.9123 N   0  0  0  0  0  0  0  0  0  0  0  0
    3.3186   -1.1207   -0.1623 O   0  0  0  0  0  0  0  0  0  0  0  0
   -1.2899   -2.2207   -0.7313 O   0  0  0  0  0  0  0  0  0  0  0  0
   -0.2013    2.2911    0.0953 O   0  0  0  0  0  0  0  0  0  0  0  0
    5.3060   -0.6990    0.0423 H   0  0  0  0  0  0  0  0  0  0  0  0
    4.3743    0.5785   -0.7482 H   0  0  0  0  0  0  0  0  0  0  0  0
    4.2468    0.3100    1.0345 H   0  0  0  0  0  0  0  0  0  0  0  0
   -0.4341   -3.9823   -0.0202 H   0  0  0  0  0  0  0  0  0  0  0  0
   -0.2890   -3.7031   -1.8006 H   0  0  0  0  0  0  0  0  0  0  0  0
   -1.8377   -4.1559   -1.0798 H   0  0  0  0  0  0  0  0  0  0  0  0
    1.4104    3.4298   -0.5765 H   0  0  0  0  0  0  0  0  0  0  0  0
    1.3043    3.1964    1.2133 H   0  0  0  0  0  0  0  0  0  0  0  0
    0.1845    4.2757    0.3748 H   0  0  0  0  0  0  0  0  0  0  0  0
   -2.2736    1.4054   -0.8413 H   0  0  0  0  0  0  0  0  0  0  0  0
   -2.6871   -0.2563   -1.1264 H   0  0  0  0  0  0  0  0  0  0  0  0
   -2.7748   -0.7019    1.3478 H   0  0  0  0  0  0  0  0  0  0  0  0
   -2.2863    0.9603    1.6766 H   0  0  0  0  0  0  0  0  0  0  0  0
    1.4170   -2.6570   -0.5730 H   0  0  0  0  0  0  0  0  0  0  0  0
    2.3788    1.4304    0.1771 H   0  0  0  0  0  0  0  0  0  0  0  0
   -4.6050    0.7315    1.8564 H   0  0  0  0  0  0  0  0  0  0  0  0
   -4.2671    1.7139    0.5994 H   0  0  0  0  0  0  0  0  0  0  0  0
  1 13  1  0
  2 14  1  0
  3 15  1  0
  4  5  1  0
  4  9  1  0
  5 12  1  0
  6  8  2  0
  6 10  1  0
  7  8  1  0
  7 11  2  0
  8 13  1  0
  9 10  2  0
  9 11  1  0
 10 14  1  0
 11 15  1  0
  1 16  1  0
  1 17  1  0
  1 18  1  0
  2 19  1  0
  2 20  1  0
  2 21  1  0
  3 22  1  0
  3 23  1  0
  3 24  1  0
  4 25  1  0
  4 26  1  0
  5 27  1  0
  5 28  1  0
  6 29  1  0
  7 30  1  0
 12 31  1  0
 12 32  1  0
M  END
