
     RDKit          3D

 31 31  0  0  0  0  0  0  0  0999 V2000
   -2.2287    2.2879    1.1944 C   0  0  0  0  0  0  0  0  0  0  0  0
   -1.2176   -2.8123   -0.3929 C   0  0  0  0  0  0  0  0  0  0  0  0
   -2.5375    1.5207   -0.0820 C   0  0  0  0  0  0  0  0  0  0  0  0
   -2.3774   -0.0002    0.0554 C   0  0  0  0  0  0  0  0  0  0  0  0
    2.2906    0.6087   -1.5125 C   0  0  0  0  0  0  0  0  0  0  0  0
    2.0800   -0.4042    0.6765 C   0  0  0  0  0  0  0  0  0  0  0  0
    3.6578    0.7968   -1.2975 C   0  0  0  0  0  0  0  0  0  0  0  0
    3.4492   -0.2152    0.8882 C   0  0  0  0  0  0  0  0  0  0  0  0
    1.4891    0.0122   -0.5244 C   0  0  0  0  0  0  0  0  0  0  0  0
    4.2238    0.3844   -0.0981 C   0  0  0  0  0  0  0  0  0  0  0  0
   -0.9376   -0.4711    0.3504 C   0  0  0  0  0  0  0  0  0  0  0  0
    0.0291   -0.1573   -0.8087 C   0  0  0  0  0  0  0  0  0  0  0  0
    5.5344    0.5629    0.1100 F   0  0  0  0  0  0  0  0  0  0  0  0
   -0.8802   -1.9110    0.7058 N   0  0  0  0  0  0  0  0  0  0  0  0
   -0.3612   -0.0341   -1.9715 O   0  0  0  0  0  0  0  0  0  0  0  0
   -2.4857    3.3446    1.0676 H   0  0  0  0  0  0  0  0  0  0  0  0
   -1.1659    2.2371    1.4474 H   0  0  0  0  0  0  0  0  0  0  0  0
   -2.8067    1.8982    2.0382 H   0  0  0  0  0  0  0  0  0  0  0  0
   -2.2390   -2.6629   -0.7537 H   0  0  0  0  0  0  0  0  0  0  0  0
   -1.1478   -3.8448   -0.0349 H   0  0  0  0  0  0  0  0  0  0  0  0
   -0.5186   -2.7210   -1.2292 H   0  0  0  0  0  0  0  0  0  0  0  0
   -1.9113    1.9025   -0.8956 H   0  0  0  0  0  0  0  0  0  0  0  0
   -3.5763    1.7291   -0.3658 H   0  0  0  0  0  0  0  0  0  0  0  0
   -3.0460   -0.3467    0.8542 H   0  0  0  0  0  0  0  0  0  0  0  0
   -2.7412   -0.4534   -0.8750 H   0  0  0  0  0  0  0  0  0  0  0  0
    1.8514    0.9300   -2.4556 H   0  0  0  0  0  0  0  0  0  0  0  0
    1.5025   -0.8968    1.4538 H   0  0  0  0  0  0  0  0  0  0  0  0
    4.2801    1.2580   -2.0578 H   0  0  0  0  0  0  0  0  0  0  0  0
    3.9164   -0.5392    1.8133 H   0  0  0  0  0  0  0  0  0  0  0  0
   -0.5896    0.0787    1.2311 H   0  0  0  0  0  0  0  0  0  0  0  0
   -1.5362   -2.0817    1.4689 H   0  0  0  0  0  0  0  0  0  0  0  0
  1  3  1  0
  2 14  1  0
  3  4  1  0
  4 11  1  0
  5  7  2  0
  5  9  1  0
  6  8  1  0
  6  9  2  0
  7 10  1  0
  8 10  2  0
  9 12  1  0
 10 13  1  0
 11 12  1  0
 11 14  1  0
 12 15  2  0
  1 16  1  0
  1 17  1  0
  1 18  1  0
  2 19  1  0
  2 20  1  0
  2 21  1  0
  3 22  1  0
  3 23  1  0
  4 24  1  0
  4 25  1  0
  5 26  1  0
  6 27  1  0
  7 28  1  0
  8 29  1  0
 11 30  1  0
 14 31  1  0
M  END
