
     RDKit          3D

 31 31  0  0  0  0  0  0  0  0999 V2000
    4.7858    0.9220   -0.7175 C   0  0  0  0  0  0  0  0  0  0  0  0
    0.3172    0.2392   -1.5324 C   0  0  0  0  0  0  0  0  0  0  0  0
    3.5958   -0.0146   -0.5725 C   0  0  0  0  0  0  0  0  0  0  0  0
   -4.9035   -0.0199    1.2729 C   0  0  0  0  0  0  0  0  0  0  0  0
   -4.4061   -1.2995    1.5079 C   0  0  0  0  0  0  0  0  0  0  0  0
   -4.0856    0.9497    0.6947 C   0  0  0  0  0  0  0  0  0  0  0  0
   -3.0877   -1.6080    1.1676 C   0  0  0  0  0  0  0  0  0  0  0  0
   -2.7645    0.6445    0.3529 C   0  0  0  0  0  0  0  0  0  0  0  0
    2.5937    0.5154    0.4562 C   0  0  0  0  0  0  0  0  0  0  0  0
    0.2030    0.0583   -0.0196 C   0  0  0  0  0  0  0  0  0  0  0  0
   -2.2538   -0.6369    0.5941 C   0  0  0  0  0  0  0  0  0  0  0  0
   -0.8536   -1.0314    0.2481 C   0  0  0  0  0  0  0  0  0  0  0  0
    1.4540   -0.3767    0.6286 N   0  0  0  0  0  0  0  0  0  0  0  0
   -0.5766   -2.2313    0.1628 O   0  0  0  0  0  0  0  0  0  0  0  0
    5.4938    0.5241   -1.4513 H   0  0  0  0  0  0  0  0  0  0  0  0
    4.4658    1.9124   -1.0565 H   0  0  0  0  0  0  0  0  0  0  0  0
    5.3129    1.0376    0.2349 H   0  0  0  0  0  0  0  0  0  0  0  0
    0.9823    1.0691   -1.7902 H   0  0  0  0  0  0  0  0  0  0  0  0
   -0.6609    0.4546   -1.9763 H   0  0  0  0  0  0  0  0  0  0  0  0
    0.6947   -0.6690   -2.0161 H   0  0  0  0  0  0  0  0  0  0  0  0
    3.9574   -1.0040   -0.2668 H   0  0  0  0  0  0  0  0  0  0  0  0
    3.1205   -0.1350   -1.5516 H   0  0  0  0  0  0  0  0  0  0  0  0
   -5.9305    0.2206    1.5370 H   0  0  0  0  0  0  0  0  0  0  0  0
   -5.0423   -2.0594    1.9550 H   0  0  0  0  0  0  0  0  0  0  0  0
   -4.4795    1.9458    0.5060 H   0  0  0  0  0  0  0  0  0  0  0  0
   -2.7107   -2.6121    1.3552 H   0  0  0  0  0  0  0  0  0  0  0  0
   -2.1673    1.4226   -0.1114 H   0  0  0  0  0  0  0  0  0  0  0  0
    2.2785    1.5359    0.2077 H   0  0  0  0  0  0  0  0  0  0  0  0
    3.1018    0.5847    1.4255 H   0  0  0  0  0  0  0  0  0  0  0  0
   -0.1027    0.9942    0.4569 H   0  0  0  0  0  0  0  0  0  0  0  0
    1.6681   -1.3331    0.3340 H   0  0  0  0  0  0  0  0  0  0  0  0
  1  3  1  0
  2 10  1  0
  3  9  1  0
  4  5  2  0
  4  6  1  0
  5  7  1  0
  6  8  2  0
  7 11  2  0
  8 11  1  0
  9 13  1  0
 10 12  1  0
 10 13  1  0
 11 12  1  0
 12 14  2  0
  1 15  1  0
  1 16  1  0
  1 17  1  0
  2 18  1  0
  2 19  1  0
  2 20  1  0
  3 21  1  0
  3 22  1  0
  4 23  1  0
  5 24  1  0
  6 25  1  0
  7 26  1  0
  8 27  1  0
  9 28  1  0
  9 29  1  0
 10 30  1  0
 13 31  1  0
M  END
