
     RDKit          3D

 32 33  0  0  0  0  0  0  0  0999 V2000
    4.9803    1.3956    0.0063 C   0  0  0  0  0  0  0  0  0  0  0  0
    3.6970    0.8726   -0.6221 C   0  0  0  0  0  0  0  0  0  0  0  0
   -2.0567   -1.5345    0.7676 C   0  0  0  0  0  0  0  0  0  0  0  0
   -3.2658   -1.0952    1.3160 C   0  0  0  0  0  0  0  0  0  0  0  0
   -0.1932   -1.3925   -0.9444 C   0  0  0  0  0  0  0  0  0  0  0  0
    3.4342   -0.5806   -0.2187 C   0  0  0  0  0  0  0  0  0  0  0  0
    0.9963   -0.6710   -0.2960 C   0  0  0  0  0  0  0  0  0  0  0  0
   -2.1868    0.1623   -0.9751 C   0  0  0  0  0  0  0  0  0  0  0  0
   -5.2344    1.5501    0.0986 C   0  0  0  0  0  0  0  0  0  0  0  0
   -1.5113   -0.9154   -0.3803 C   0  0  0  0  0  0  0  0  0  0  0  0
   -3.9014   -0.0388    0.7020 C   0  0  0  0  0  0  0  0  0  0  0  0
   -3.3767    0.5729   -0.4116 C   0  0  0  0  0  0  0  0  0  0  0  0
    2.2555   -1.1576   -0.8671 N   0  0  0  0  0  0  0  0  0  0  0  0
   -5.0775    0.5191    1.0954 O   0  0  0  0  0  0  0  0  0  0  0  0
   -4.1560    1.5939   -0.8588 O   0  0  0  0  0  0  0  0  0  0  0  0
    4.9242    1.3607    1.0990 H   0  0  0  0  0  0  0  0  0  0  0  0
    5.1521    2.4345   -0.2922 H   0  0  0  0  0  0  0  0  0  0  0  0
    5.8437    0.8035   -0.3132 H   0  0  0  0  0  0  0  0  0  0  0  0
    3.7762    0.9511   -1.7129 H   0  0  0  0  0  0  0  0  0  0  0  0
    2.8681    1.5165   -0.3089 H   0  0  0  0  0  0  0  0  0  0  0  0
   -1.5340   -2.3662    1.2372 H   0  0  0  0  0  0  0  0  0  0  0  0
   -3.6893   -1.5679    2.1947 H   0  0  0  0  0  0  0  0  0  0  0  0
   -0.1078   -2.4770   -0.7961 H   0  0  0  0  0  0  0  0  0  0  0  0
   -0.1878   -1.2353   -2.0311 H   0  0  0  0  0  0  0  0  0  0  0  0
    4.2976   -1.1887   -0.5142 H   0  0  0  0  0  0  0  0  0  0  0  0
    3.3565   -0.6727    0.8715 H   0  0  0  0  0  0  0  0  0  0  0  0
    0.9831   -0.8524    0.7859 H   0  0  0  0  0  0  0  0  0  0  0  0
    0.8941    0.4090   -0.4522 H   0  0  0  0  0  0  0  0  0  0  0  0
   -1.7947    0.6650   -1.8526 H   0  0  0  0  0  0  0  0  0  0  0  0
   -5.2928    2.5205    0.6048 H   0  0  0  0  0  0  0  0  0  0  0  0
   -6.1738    1.3776   -0.4392 H   0  0  0  0  0  0  0  0  0  0  0  0
    2.2810   -0.9589   -1.8670 H   0  0  0  0  0  0  0  0  0  0  0  0
  1  2  1  0
  2  6  1  0
  3  4  2  0
  3 10  1  0
  4 11  1  0
  5  7  1  0
  5 10  1  0
  6 13  1  0
  7 13  1  0
  8 10  2  0
  8 12  1  0
  9 14  1  0
  9 15  1  0
 11 12  2  0
 11 14  1  0
 12 15  1  0
  1 16  1  0
  1 17  1  0
  1 18  1  0
  2 19  1  0
  2 20  1  0
  3 21  1  0
  4 22  1  0
  5 23  1  0
  5 24  1  0
  6 25  1  0
  6 26  1  0
  7 27  1  0
  7 28  1  0
  8 29  1  0
  9 30  1  0
  9 31  1  0
 13 32  1  0
M  END
