
     RDKit          3D

 33 34  0  0  0  0  0  0  0  0999 V2000
   -0.9017    3.8932   -0.3742 C   0  0  0  0  0  0  0  0  0  0  0  0
   -1.7548   -3.0747    1.1593 C   0  0  0  0  0  0  0  0  0  0  0  0
   -3.7680    0.3514   -1.1966 C   0  0  0  0  0  0  0  0  0  0  0  0
    0.3162    1.3558   -0.0301 C   0  0  0  0  0  0  0  0  0  0  0  0
    0.0315   -0.9769    0.4901 C   0  0  0  0  0  0  0  0  0  0  0  0
    3.1203   -1.0412    1.1538 C   0  0  0  0  0  0  0  0  0  0  0  0
    0.9040    0.1059    0.2567 C   0  0  0  0  0  0  0  0  0  0  0  0
    2.4210   -0.0137    0.2977 C   0  0  0  0  0  0  0  0  0  0  0  0
    3.1172   -1.1964   -0.3393 C   0  0  0  0  0  0  0  0  0  0  0  0
   -1.0704    1.5313   -0.0857 C   0  0  0  0  0  0  0  0  0  0  0  0
   -1.3597   -0.8336    0.4412 C   0  0  0  0  0  0  0  0  0  0  0  0
   -1.8994    0.4225    0.1313 C   0  0  0  0  0  0  0  0  0  0  0  0
    4.3644   -1.0052   -1.0785 N   0  0  0  0  0  0  0  0  0  0  0  0
   -1.6997    2.7180   -0.3608 O   0  0  0  0  0  0  0  0  0  0  0  0
   -2.2596   -1.8458    0.6564 O   0  0  0  0  0  0  0  0  0  0  0  0
   -3.2671    0.5875    0.1178 O   0  0  0  0  0  0  0  0  0  0  0  0
   -0.2101    3.8867   -1.2228 H   0  0  0  0  0  0  0  0  0  0  0  0
   -1.5707    4.7502   -0.4982 H   0  0  0  0  0  0  0  0  0  0  0  0
   -0.3664    4.0233    0.5723 H   0  0  0  0  0  0  0  0  0  0  0  0
   -1.1288   -3.5753    0.4136 H   0  0  0  0  0  0  0  0  0  0  0  0
   -2.6086   -3.7269    1.3670 H   0  0  0  0  0  0  0  0  0  0  0  0
   -1.2118   -2.9285    2.0991 H   0  0  0  0  0  0  0  0  0  0  0  0
   -4.8528    0.4921   -1.1712 H   0  0  0  0  0  0  0  0  0  0  0  0
   -3.3526    1.0643   -1.9172 H   0  0  0  0  0  0  0  0  0  0  0  0
   -3.5691   -0.6754   -1.5225 H   0  0  0  0  0  0  0  0  0  0  0  0
    0.9825    2.1932   -0.2152 H   0  0  0  0  0  0  0  0  0  0  0  0
    0.4679   -1.9463    0.7054 H   0  0  0  0  0  0  0  0  0  0  0  0
    4.0429   -0.7481    1.6429 H   0  0  0  0  0  0  0  0  0  0  0  0
    2.5385   -1.7416    1.7400 H   0  0  0  0  0  0  0  0  0  0  0  0
    2.9484    0.9379    0.2305 H   0  0  0  0  0  0  0  0  0  0  0  0
    2.4958   -1.9952   -0.7383 H   0  0  0  0  0  0  0  0  0  0  0  0
    4.1709   -0.7327   -2.0422 H   0  0  0  0  0  0  0  0  0  0  0  0
    4.9296   -0.2557   -0.6822 H   0  0  0  0  0  0  0  0  0  0  0  0
  1 14  1  0
  2 15  1  0
  3 16  1  0
  4  7  2  0
  4 10  1  0
  5  7  1  0
  5 11  2  0
  6  8  1  0
  6  9  1  0
  7  8  1  0
  8  9  1  0
  9 13  1  0
 10 12  2  0
 10 14  1  0
 11 12  1  0
 11 15  1  0
 12 16  1  0
  1 17  1  0
  1 18  1  0
  1 19  1  0
  2 20  1  0
  2 21  1  0
  2 22  1  0
  3 23  1  0
  3 24  1  0
  3 25  1  0
  4 26  1  0
  5 27  1  0
  6 28  1  0
  6 29  1  0
  8 30  1  0
  9 31  1  0
 13 32  1  0
 13 33  1  0
M  END
