
     RDKit          3D

 32 32  0  0  0  0  0  0  0  0999 V2000
   -1.7657    2.8833    0.0822 C   0  0  0  0  0  0  0  0  0  0  0  0
   -3.3667    0.4628    0.7289 C   0  0  0  0  0  0  0  0  0  0  0  0
   -2.1533   -2.1876    0.3566 C   0  0  0  0  0  0  0  0  0  0  0  0
    0.6920   -2.4115   -0.3250 C   0  0  0  0  0  0  0  0  0  0  0  0
    2.2333    0.0947   -0.9565 C   0  0  0  0  0  0  0  0  0  0  0  0
    3.1813    0.1874    0.2448 C   0  0  0  0  0  0  0  0  0  0  0  0
    0.1553    1.3696   -0.4170 C   0  0  0  0  0  0  0  0  0  0  0  0
   -1.1811    1.4994   -0.0198 C   0  0  0  0  0  0  0  0  0  0  0  0
   -1.9280    0.3426    0.2824 C   0  0  0  0  0  0  0  0  0  0  0  0
   -1.3322   -0.9381    0.1183 C   0  0  0  0  0  0  0  0  0  0  0  0
    0.0436   -1.0495   -0.2277 C   0  0  0  0  0  0  0  0  0  0  0  0
    0.7785    0.1171   -0.5290 C   0  0  0  0  0  0  0  0  0  0  0  0
    4.5806    0.1654   -0.1821 N   0  0  0  0  0  0  0  0  0  0  0  0
   -2.7023    2.9474   -0.4812 H   0  0  0  0  0  0  0  0  0  0  0  0
   -1.0906    3.6382   -0.3354 H   0  0  0  0  0  0  0  0  0  0  0  0
   -1.9456    3.1415    1.1305 H   0  0  0  0  0  0  0  0  0  0  0  0
   -3.5901    1.4418    1.1617 H   0  0  0  0  0  0  0  0  0  0  0  0
   -4.0365    0.2990   -0.1210 H   0  0  0  0  0  0  0  0  0  0  0  0
   -3.5935   -0.2614    1.5184 H   0  0  0  0  0  0  0  0  0  0  0  0
   -2.0662   -2.4981    1.4021 H   0  0  0  0  0  0  0  0  0  0  0  0
   -1.8343   -3.0092   -0.2923 H   0  0  0  0  0  0  0  0  0  0  0  0
   -3.2095   -2.0341    0.1155 H   0  0  0  0  0  0  0  0  0  0  0  0
    0.4992   -2.8468   -1.3102 H   0  0  0  0  0  0  0  0  0  0  0  0
    0.3151   -3.0862    0.4505 H   0  0  0  0  0  0  0  0  0  0  0  0
    1.7722   -2.3730   -0.1640 H   0  0  0  0  0  0  0  0  0  0  0  0
    2.4414   -0.7998   -1.5555 H   0  0  0  0  0  0  0  0  0  0  0  0
    2.4178    0.9362   -1.6386 H   0  0  0  0  0  0  0  0  0  0  0  0
    2.9946    1.1104    0.8061 H   0  0  0  0  0  0  0  0  0  0  0  0
    3.0108   -0.6468    0.9339 H   0  0  0  0  0  0  0  0  0  0  0  0
    0.7295    2.2670   -0.6447 H   0  0  0  0  0  0  0  0  0  0  0  0
    4.7706    0.9769   -0.7689 H   0  0  0  0  0  0  0  0  0  0  0  0
    5.1797    0.2614    0.6372 H   0  0  0  0  0  0  0  0  0  0  0  0
  1  8  1  0
  2  9  1  0
  3 10  1  0
  4 11  1  0
  5  6  1  0
  5 12  1  0
  6 13  1  0
  7  8  2  0
  7 12  1  0
  8  9  1  0
  9 10  2  0
 10 11  1  0
 11 12  2  0
  1 14  1  0
  1 15  1  0
  1 16  1  0
  2 17  1  0
  2 18  1  0
  2 19  1  0
  3 20  1  0
  3 21  1  0
  3 22  1  0
  4 23  1  0
  4 24  1  0
  4 25  1  0
  5 26  1  0
  5 27  1  0
  6 28  1  0
  6 29  1  0
  7 30  1  0
 13 31  1  0
 13 32  1  0
M  END
