
     RDKit          3D

 33 33  0  0  0  0  0  0  0  0999 V2000
    4.0126    2.9877    0.2645 C   0  0  0  0  0  0  0  0  0  0  0  0
   -2.9836    0.3923   -0.8117 C   0  0  0  0  0  0  0  0  0  0  0  0
   -2.7448   -2.9713   -2.4036 C   0  0  0  0  0  0  0  0  0  0  0  0
    4.0018    1.8936    1.3179 C   0  0  0  0  0  0  0  0  0  0  0  0
    0.8071   -0.5113   -0.2315 C   0  0  0  0  0  0  0  0  0  0  0  0
   -0.4542    0.0778    1.7342 C   0  0  0  0  0  0  0  0  0  0  0  0
    1.8683    0.2916    0.2032 C   0  0  0  0  0  0  0  0  0  0  0  0
    0.6069    0.8782    2.1643 C   0  0  0  0  0  0  0  0  0  0  0  0
   -1.5088   -1.4897    0.0523 C   0  0  0  0  0  0  0  0  0  0  0  0
   -2.2643   -0.9143   -1.1703 C   0  0  0  0  0  0  0  0  0  0  0  0
   -0.3639   -0.6251    0.5285 C   0  0  0  0  0  0  0  0  0  0  0  0
    1.7749    0.9885    1.4063 C   0  0  0  0  0  0  0  0  0  0  0  0
   -3.2960   -1.8356   -1.6802 N   0  0  0  0  0  0  0  0  0  0  0  0
    2.7247    1.8083    1.9473 O   0  0  0  0  0  0  0  0  0  0  0  0
    3.7087    3.9441    0.7029 H   0  0  0  0  0  0  0  0  0  0  0  0
    5.0121    3.1002   -0.1652 H   0  0  0  0  0  0  0  0  0  0  0  0
    3.3083    2.7725   -0.5444 H   0  0  0  0  0  0  0  0  0  0  0  0
   -3.6835    0.2520    0.0199 H   0  0  0  0  0  0  0  0  0  0  0  0
   -3.5502    0.7752   -1.6686 H   0  0  0  0  0  0  0  0  0  0  0  0
   -2.2704    1.1725   -0.5268 H   0  0  0  0  0  0  0  0  0  0  0  0
   -2.1090   -2.6450   -3.2328 H   0  0  0  0  0  0  0  0  0  0  0  0
   -2.1720   -3.6379   -1.7529 H   0  0  0  0  0  0  0  0  0  0  0  0
   -3.5644   -3.5561   -2.8330 H   0  0  0  0  0  0  0  0  0  0  0  0
    4.7157    2.1652    2.1039 H   0  0  0  0  0  0  0  0  0  0  0  0
    4.3432    0.9297    0.9247 H   0  0  0  0  0  0  0  0  0  0  0  0
    0.9030   -1.0479   -1.1733 H   0  0  0  0  0  0  0  0  0  0  0  0
   -1.3499    0.0139    2.3476 H   0  0  0  0  0  0  0  0  0  0  0  0
    2.7466    0.3534   -0.4294 H   0  0  0  0  0  0  0  0  0  0  0  0
    0.5226    1.4221    3.1021 H   0  0  0  0  0  0  0  0  0  0  0  0
   -2.2128   -1.6615    0.8776 H   0  0  0  0  0  0  0  0  0  0  0  0
   -1.0877   -2.4747   -0.1843 H   0  0  0  0  0  0  0  0  0  0  0  0
   -1.5580   -0.6853   -1.9785 H   0  0  0  0  0  0  0  0  0  0  0  0
   -3.8829   -2.1632   -0.9136 H   0  0  0  0  0  0  0  0  0  0  0  0
  1  4  1  0
  2 10  1  0
  3 13  1  0
  4 14  1  0
  5  7  2  0
  5 11  1  0
  6  8  1  0
  6 11  2  0
  7 12  1  0
  8 12  2  0
  9 10  1  0
  9 11  1  0
 10 13  1  0
 12 14  1  0
  1 15  1  0
  1 16  1  0
  1 17  1  0
  2 18  1  0
  2 19  1  0
  2 20  1  0
  3 21  1  0
  3 22  1  0
  3 23  1  0
  4 24  1  0
  4 25  1  0
  5 26  1  0
  6 27  1  0
  7 28  1  0
  8 29  1  0
  9 30  1  0
  9 31  1  0
 10 32  1  0
 13 33  1  0
M  END
