
     RDKit          3D

 33 33  0  0  0  0  0  0  0  0999 V2000
   -3.2230   -1.8342   -0.9210 C   0  0  0  0  0  0  0  0  0  0  0  0
   -1.8939    3.4214    0.1856 C   0  0  0  0  0  0  0  0  0  0  0  0
    2.2958    1.2900    1.9243 C   0  0  0  0  0  0  0  0  0  0  0  0
   -1.9556   -1.4612   -1.6699 C   0  0  0  0  0  0  0  0  0  0  0  0
    1.5073   -1.3046    0.6474 C   0  0  0  0  0  0  0  0  0  0  0  0
    2.4147   -1.4647   -0.5774 C   0  0  0  0  0  0  0  0  0  0  0  0
    0.1808    2.2741    1.0232 C   0  0  0  0  0  0  0  0  0  0  0  0
   -1.3872    1.0038   -0.2980 C   0  0  0  0  0  0  0  0  0  0  0  0
   -1.0257    2.2052    0.3222 C   0  0  0  0  0  0  0  0  0  0  0  0
    1.0180    1.1537    1.1398 C   0  0  0  0  0  0  0  0  0  0  0  0
    0.6309   -0.0673    0.5402 C   0  0  0  0  0  0  0  0  0  0  0  0
   -0.5726   -0.1283   -0.1997 C   0  0  0  0  0  0  0  0  0  0  0  0
    3.2701   -2.6470   -0.4529 N   0  0  0  0  0  0  0  0  0  0  0  0
   -0.8544   -1.3422   -0.7721 O   0  0  0  0  0  0  0  0  0  0  0  0
   -3.5126   -1.0561   -0.2087 H   0  0  0  0  0  0  0  0  0  0  0  0
   -3.0692   -2.7511   -0.3421 H   0  0  0  0  0  0  0  0  0  0  0  0
   -4.0507   -1.9940   -1.6179 H   0  0  0  0  0  0  0  0  0  0  0  0
   -2.9506    3.1415    0.1199 H   0  0  0  0  0  0  0  0  0  0  0  0
   -1.6180    3.9784   -0.7151 H   0  0  0  0  0  0  0  0  0  0  0  0
   -1.7870    4.0789    1.0548 H   0  0  0  0  0  0  0  0  0  0  0  0
    3.1504    0.9431    1.3354 H   0  0  0  0  0  0  0  0  0  0  0  0
    2.2310    0.7164    2.8542 H   0  0  0  0  0  0  0  0  0  0  0  0
    2.4946    2.3339    2.1906 H   0  0  0  0  0  0  0  0  0  0  0  0
   -1.7074   -2.2807   -2.3541 H   0  0  0  0  0  0  0  0  0  0  0  0
   -2.0842   -0.5759   -2.3019 H   0  0  0  0  0  0  0  0  0  0  0  0
    2.1105   -1.2687    1.5620 H   0  0  0  0  0  0  0  0  0  0  0  0
    0.8738   -2.1928    0.7724 H   0  0  0  0  0  0  0  0  0  0  0  0
    1.8175   -1.5537   -1.4919 H   0  0  0  0  0  0  0  0  0  0  0  0
    3.0528   -0.5818   -0.6945 H   0  0  0  0  0  0  0  0  0  0  0  0
    0.4722    3.2143    1.4888 H   0  0  0  0  0  0  0  0  0  0  0  0
   -2.3232    0.9786   -0.8453 H   0  0  0  0  0  0  0  0  0  0  0  0
    3.8139   -2.7519   -1.3085 H   0  0  0  0  0  0  0  0  0  0  0  0
    2.6811   -3.4772   -0.3895 H   0  0  0  0  0  0  0  0  0  0  0  0
  1  4  1  0
  2  9  1  0
  3 10  1  0
  4 14  1  0
  5  6  1  0
  5 11  1  0
  6 13  1  0
  7  9  2  0
  7 10  1  0
  8  9  1  0
  8 12  2  0
 10 11  2  0
 11 12  1  0
 12 14  1  0
  1 15  1  0
  1 16  1  0
  1 17  1  0
  2 18  1  0
  2 19  1  0
  2 20  1  0
  3 21  1  0
  3 22  1  0
  3 23  1  0
  4 24  1  0
  4 25  1  0
  5 26  1  0
  5 27  1  0
  6 28  1  0
  6 29  1  0
  7 30  1  0
  8 31  1  0
 13 32  1  0
 13 33  1  0
M  END
