
     RDKit          3D

 33 33  0  0  0  0  0  0  0  0999 V2000
    1.5560    2.5162    1.0021 C   0  0  0  0  0  0  0  0  0  0  0  0
    1.9249   -2.5093    0.3962 C   0  0  0  0  0  0  0  0  0  0  0  0
   -3.4989    0.8169    0.1779 C   0  0  0  0  0  0  0  0  0  0  0  0
    4.0276    0.1896    0.5047 C   0  0  0  0  0  0  0  0  0  0  0  0
   -0.1272    1.2095   -0.3228 C   0  0  0  0  0  0  0  0  0  0  0  0
    0.0506   -1.1819   -0.6108 C   0  0  0  0  0  0  0  0  0  0  0  0
   -1.9104    0.0155   -1.6684 C   0  0  0  0  0  0  0  0  0  0  0  0
    1.0476    1.2184    0.4429 C   0  0  0  0  0  0  0  0  0  0  0  0
    1.2267   -1.2025    0.1518 C   0  0  0  0  0  0  0  0  0  0  0  0
   -3.2179   -0.2462   -0.8845 C   0  0  0  0  0  0  0  0  0  0  0  0
   -0.6347    0.0163   -0.8544 C   0  0  0  0  0  0  0  0  0  0  0  0
    1.7402    0.0121    0.6323 C   0  0  0  0  0  0  0  0  0  0  0  0
   -3.2487   -1.5829   -0.2776 N   0  0  0  0  0  0  0  0  0  0  0  0
    2.9016    0.0109    1.3657 O   0  0  0  0  0  0  0  0  0  0  0  0
    1.9989    2.3723    1.9929 H   0  0  0  0  0  0  0  0  0  0  0  0
    2.3051    2.9478    0.3315 H   0  0  0  0  0  0  0  0  0  0  0  0
    0.7410    3.2384    1.1212 H   0  0  0  0  0  0  0  0  0  0  0  0
    2.3738   -2.5369    1.3943 H   0  0  0  0  0  0  0  0  0  0  0  0
    1.2202   -3.3463    0.3428 H   0  0  0  0  0  0  0  0  0  0  0  0
    2.7054   -2.6657   -0.3543 H   0  0  0  0  0  0  0  0  0  0  0  0
   -2.7741    0.7811    0.9981 H   0  0  0  0  0  0  0  0  0  0  0  0
   -4.4950    0.6761    0.6129 H   0  0  0  0  0  0  0  0  0  0  0  0
   -3.4700    1.8201   -0.2604 H   0  0  0  0  0  0  0  0  0  0  0  0
    3.9821    1.1484   -0.0221 H   0  0  0  0  0  0  0  0  0  0  0  0
    4.1169   -0.6310   -0.2146 H   0  0  0  0  0  0  0  0  0  0  0  0
    4.9267    0.1902    1.1283 H   0  0  0  0  0  0  0  0  0  0  0  0
   -0.6571    2.1435   -0.5004 H   0  0  0  0  0  0  0  0  0  0  0  0
   -0.3454   -2.1127   -1.0156 H   0  0  0  0  0  0  0  0  0  0  0  0
   -1.8132   -0.7321   -2.4678 H   0  0  0  0  0  0  0  0  0  0  0  0
   -1.9952    0.9779   -2.1911 H   0  0  0  0  0  0  0  0  0  0  0  0
   -4.0375   -0.2087   -1.6127 H   0  0  0  0  0  0  0  0  0  0  0  0
   -2.5030   -1.6455    0.4182 H   0  0  0  0  0  0  0  0  0  0  0  0
   -4.1170   -1.6996    0.2437 H   0  0  0  0  0  0  0  0  0  0  0  0
  1  8  1  0
  2  9  1  0
  3 10  1  0
  4 14  1  0
  5  8  2  0
  5 11  1  0
  6  9  1  0
  6 11  2  0
  7 10  1  0
  7 11  1  0
  8 12  1  0
  9 12  2  0
 10 13  1  0
 12 14  1  0
  1 15  1  0
  1 16  1  0
  1 17  1  0
  2 18  1  0
  2 19  1  0
  2 20  1  0
  3 21  1  0
  3 22  1  0
  3 23  1  0
  4 24  1  0
  4 25  1  0
  4 26  1  0
  5 27  1  0
  6 28  1  0
  7 29  1  0
  7 30  1  0
 10 31  1  0
 13 32  1  0
 13 33  1  0
M  END
