
     RDKit          3D

 31 32  0  0  0  0  0  0  0  0999 V2000
   -2.6347   -2.0544    1.6465 C   0  0  0  0  0  0  0  0  0  0  0  0
   -0.2394    2.2526   -1.1852 C   0  0  0  0  0  0  0  0  0  0  0  0
    4.1158   -0.2625    0.0702 C   0  0  0  0  0  0  0  0  0  0  0  0
    3.3018   -0.0694    1.1842 C   0  0  0  0  0  0  0  0  0  0  0  0
    3.5427   -0.4450   -1.1867 C   0  0  0  0  0  0  0  0  0  0  0  0
    1.9136   -0.0546    1.0409 C   0  0  0  0  0  0  0  0  0  0  0  0
    2.1540   -0.4312   -1.3318 C   0  0  0  0  0  0  0  0  0  0  0  0
   -2.8605   -0.0180    0.1707 C   0  0  0  0  0  0  0  0  0  0  0  0
   -1.9535   -0.7877    1.1459 C   0  0  0  0  0  0  0  0  0  0  0  0
   -0.7914    1.2349   -0.1824 C   0  0  0  0  0  0  0  0  0  0  0  0
    1.3215   -0.2316   -0.2196 C   0  0  0  0  0  0  0  0  0  0  0  0
   -0.1864   -0.1947   -0.3864 C   0  0  0  0  0  0  0  0  0  0  0  0
   -2.2733    1.2598   -0.2644 N   0  0  0  0  0  0  0  0  0  0  0  0
   -0.7298   -1.1838    0.5125 O   0  0  0  0  0  0  0  0  0  0  0  0
   -1.9743   -2.5984    2.3306 H   0  0  0  0  0  0  0  0  0  0  0  0
   -2.8563   -2.7343    0.8164 H   0  0  0  0  0  0  0  0  0  0  0  0
   -3.5671   -1.8246    2.1710 H   0  0  0  0  0  0  0  0  0  0  0  0
   -0.7048    3.2347   -1.0426 H   0  0  0  0  0  0  0  0  0  0  0  0
    0.8392    2.3902   -1.0603 H   0  0  0  0  0  0  0  0  0  0  0  0
   -0.4257    1.9371   -2.2179 H   0  0  0  0  0  0  0  0  0  0  0  0
    5.1965   -0.2769    0.1827 H   0  0  0  0  0  0  0  0  0  0  0  0
    3.7467    0.0643    2.1666 H   0  0  0  0  0  0  0  0  0  0  0  0
    4.1777   -0.6018   -2.0547 H   0  0  0  0  0  0  0  0  0  0  0  0
    1.2894    0.0842    1.9212 H   0  0  0  0  0  0  0  0  0  0  0  0
    1.7263   -0.5787   -2.3208 H   0  0  0  0  0  0  0  0  0  0  0  0
   -3.8346    0.1865    0.6270 H   0  0  0  0  0  0  0  0  0  0  0  0
   -3.0343   -0.6336   -0.7211 H   0  0  0  0  0  0  0  0  0  0  0  0
   -1.7048   -0.1633    2.0132 H   0  0  0  0  0  0  0  0  0  0  0  0
   -0.5343    1.5879    0.8249 H   0  0  0  0  0  0  0  0  0  0  0  0
   -0.4423   -0.5413   -1.3966 H   0  0  0  0  0  0  0  0  0  0  0  0
   -2.5774    1.4537   -1.2182 H   0  0  0  0  0  0  0  0  0  0  0  0
  1  9  1  0
  2 10  1  0
  3  4  2  0
  3  5  1  0
  4  6  1  0
  5  7  2  0
  6 11  2  0
  7 11  1  0
  8  9  1  0
  8 13  1  0
  9 14  1  0
 10 12  1  0
 10 13  1  0
 11 12  1  0
 12 14  1  0
  1 15  1  0
  1 16  1  0
  1 17  1  0
  2 18  1  0
  2 19  1  0
  2 20  1  0
  3 21  1  0
  4 22  1  0
  5 23  1  0
  6 24  1  0
  7 25  1  0
  8 26  1  0
  8 27  1  0
  9 28  1  0
 10 29  1  0
 12 30  1  0
 13 31  1  0
M  END
