
     RDKit          3D

 34 34  0  0  0  0  0  0  0  0999 V2000
   -4.5489    2.0086   -0.0721 C   0  0  0  0  0  0  0  0  0  0  0  0
   -3.6544    0.8538   -0.4956 C   0  0  0  0  0  0  0  0  0  0  0  0
   -3.0408    0.1496    0.7172 C   0  0  0  0  0  0  0  0  0  0  0  0
    2.0978    0.8087   -1.0270 C   0  0  0  0  0  0  0  0  0  0  0  0
    3.0022    1.5885   -0.3019 C   0  0  0  0  0  0  0  0  0  0  0  0
    1.0458   -1.4181   -1.6141 C   0  0  0  0  0  0  0  0  0  0  0  0
   -2.1856   -1.0641    0.3394 C   0  0  0  0  0  0  0  0  0  0  0  0
   -0.1847   -1.8234   -0.7865 C   0  0  0  0  0  0  0  0  0  0  0  0
    2.9227   -1.1896    0.0670 C   0  0  0  0  0  0  0  0  0  0  0  0
    2.0450   -0.5841   -0.8447 C   0  0  0  0  0  0  0  0  0  0  0  0
    3.8515    0.9740    0.6056 C   0  0  0  0  0  0  0  0  0  0  0  0
    3.8297   -0.4075    0.7697 C   0  0  0  0  0  0  0  0  0  0  0  0
   -1.0239   -0.6660   -0.4548 N   0  0  0  0  0  0  0  0  0  0  0  0
    4.6863    1.7479    1.3587 O   0  0  0  0  0  0  0  0  0  0  0  0
    4.7217   -1.0189    1.6030 O   0  0  0  0  0  0  0  0  0  0  0  0
   -4.9776    2.4983   -0.9521 H   0  0  0  0  0  0  0  0  0  0  0  0
   -3.9825    2.7571    0.4912 H   0  0  0  0  0  0  0  0  0  0  0  0
   -5.3736    1.6567    0.5559 H   0  0  0  0  0  0  0  0  0  0  0  0
   -4.2442    0.1389   -1.0810 H   0  0  0  0  0  0  0  0  0  0  0  0
   -2.8664    1.2400   -1.1518 H   0  0  0  0  0  0  0  0  0  0  0  0
   -3.8455   -0.1898    1.3815 H   0  0  0  0  0  0  0  0  0  0  0  0
   -2.4383    0.8630    1.2938 H   0  0  0  0  0  0  0  0  0  0  0  0
    1.4220    1.2940   -1.7291 H   0  0  0  0  0  0  0  0  0  0  0  0
    3.0273    2.6659   -0.4340 H   0  0  0  0  0  0  0  0  0  0  0  0
    0.7300   -0.8844   -2.5200 H   0  0  0  0  0  0  0  0  0  0  0  0
    1.5527   -2.3250   -1.9687 H   0  0  0  0  0  0  0  0  0  0  0  0
   -2.8002   -1.7783   -0.2213 H   0  0  0  0  0  0  0  0  0  0  0  0
   -1.8574   -1.5575    1.2622 H   0  0  0  0  0  0  0  0  0  0  0  0
   -0.7725   -2.5350   -1.3786 H   0  0  0  0  0  0  0  0  0  0  0  0
    0.1350   -2.3353    0.1295 H   0  0  0  0  0  0  0  0  0  0  0  0
    2.9138   -2.2657    0.2166 H   0  0  0  0  0  0  0  0  0  0  0  0
   -0.4666    0.0062    0.0754 H   0  0  0  0  0  0  0  0  0  0  0  0
    4.7177    1.3284    2.2380 H   0  0  0  0  0  0  0  0  0  0  0  0
    5.5618   -0.5367    1.4904 H   0  0  0  0  0  0  0  0  0  0  0  0
  1  2  1  0
  2  3  1  0
  3  7  1  0
  4  5  2  0
  4 10  1  0
  5 11  1  0
  6  8  1  0
  6 10  1  0
  7 13  1  0
  8 13  1  0
  9 10  2  0
  9 12  1  0
 11 12  2  0
 11 14  1  0
 12 15  1  0
  1 16  1  0
  1 17  1  0
  1 18  1  0
  2 19  1  0
  2 20  1  0
  3 21  1  0
  3 22  1  0
  4 23  1  0
  5 24  1  0
  6 25  1  0
  6 26  1  0
  7 27  1  0
  7 28  1  0
  8 29  1  0
  8 30  1  0
  9 31  1  0
 13 32  1  0
 14 33  1  0
 15 34  1  0
M  END
