
     RDKit          3D

 34 34  0  0  0  0  0  0  0  0999 V2000
    3.7210    0.9108    1.6719 C   0  0  0  0  0  0  0  0  0  0  0  0
   -4.1084    1.2587   -2.1995 C   0  0  0  0  0  0  0  0  0  0  0  0
   -2.5293   -0.6305    2.6670 C   0  0  0  0  0  0  0  0  0  0  0  0
    2.4864    0.1446    1.2123 C   0  0  0  0  0  0  0  0  0  0  0  0
   -0.2719   -0.4595   -1.8345 C   0  0  0  0  0  0  0  0  0  0  0  0
   -1.5329    0.1225   -1.9829 C   0  0  0  0  0  0  0  0  0  0  0  0
    1.5191   -1.5672   -0.4380 C   0  0  0  0  0  0  0  0  0  0  0  0
   -0.7235   -0.8496    0.5033 C   0  0  0  0  0  0  0  0  0  0  0  0
    0.1472   -0.9469   -0.5928 C   0  0  0  0  0  0  0  0  0  0  0  0
    2.6808   -0.5885   -0.1293 C   0  0  0  0  0  0  0  0  0  0  0  0
   -2.3984    0.2248   -0.8897 C   0  0  0  0  0  0  0  0  0  0  0  0
   -1.9901   -0.2665    0.3663 C   0  0  0  0  0  0  0  0  0  0  0  0
    2.8966    0.3509   -1.2376 N   0  0  0  0  0  0  0  0  0  0  0  0
   -3.6519    0.7835   -0.9417 O   0  0  0  0  0  0  0  0  0  0  0  0
   -2.8952   -0.1284    1.3905 O   0  0  0  0  0  0  0  0  0  0  0  0
    3.9518    1.7443    1.0021 H   0  0  0  0  0  0  0  0  0  0  0  0
    3.5524    1.3271    2.6704 H   0  0  0  0  0  0  0  0  0  0  0  0
    4.5948    0.2536    1.7234 H   0  0  0  0  0  0  0  0  0  0  0  0
   -4.1657    0.4472   -2.9324 H   0  0  0  0  0  0  0  0  0  0  0  0
   -3.4806    2.0786   -2.5634 H   0  0  0  0  0  0  0  0  0  0  0  0
   -5.1201    1.6523   -2.0611 H   0  0  0  0  0  0  0  0  0  0  0  0
   -3.3635   -0.4458    3.3508 H   0  0  0  0  0  0  0  0  0  0  0  0
   -2.3612   -1.7120    2.6337 H   0  0  0  0  0  0  0  0  0  0  0  0
   -1.6540   -0.1047    3.0623 H   0  0  0  0  0  0  0  0  0  0  0  0
    2.2350   -0.5893    1.9880 H   0  0  0  0  0  0  0  0  0  0  0  0
    1.6447    0.8450    1.1526 H   0  0  0  0  0  0  0  0  0  0  0  0
    0.3875   -0.5292   -2.6984 H   0  0  0  0  0  0  0  0  0  0  0  0
   -1.8077    0.4865   -2.9669 H   0  0  0  0  0  0  0  0  0  0  0  0
    1.7533   -2.1274   -1.3540 H   0  0  0  0  0  0  0  0  0  0  0  0
    1.4752   -2.3285    0.3527 H   0  0  0  0  0  0  0  0  0  0  0  0
   -0.3882   -1.2360    1.4601 H   0  0  0  0  0  0  0  0  0  0  0  0
    3.5886   -1.2004   -0.0511 H   0  0  0  0  0  0  0  0  0  0  0  0
    3.7074    0.9362   -1.0441 H   0  0  0  0  0  0  0  0  0  0  0  0
    2.1008    0.9889   -1.2900 H   0  0  0  0  0  0  0  0  0  0  0  0
  1  4  1  0
  2 14  1  0
  3 15  1  0
  4 10  1  0
  5  6  2  0
  5  9  1  0
  6 11  1  0
  7  9  1  0
  7 10  1  0
  8  9  2  0
  8 12  1  0
 10 13  1  0
 11 12  2  0
 11 14  1  0
 12 15  1  0
  1 16  1  0
  1 17  1  0
  1 18  1  0
  2 19  1  0
  2 20  1  0
  2 21  1  0
  3 22  1  0
  3 23  1  0
  3 24  1  0
  4 25  1  0
  4 26  1  0
  5 27  1  0
  6 28  1  0
  7 29  1  0
  7 30  1  0
  8 31  1  0
 10 32  1  0
 13 33  1  0
 13 34  1  0
M  END
