
     RDKit          3D

 32 33  0  0  0  0  0  0  0  0999 V2000
   -2.4330   -3.1039   -0.6803 C   0  0  0  0  0  0  0  0  0  0  0  0
   -1.1042   -2.3607   -0.6508 C   0  0  0  0  0  0  0  0  0  0  0  0
    2.5699    0.6479    0.5685 C   0  0  0  0  0  0  0  0  0  0  0  0
    2.2466    0.5003   -0.9175 C   0  0  0  0  0  0  0  0  0  0  0  0
   -1.3245    3.4108    0.8241 C   0  0  0  0  0  0  0  0  0  0  0  0
    1.9805   -0.4749    1.4063 C   0  0  0  0  0  0  0  0  0  0  0  0
   -0.8802    2.0901    1.1212 C   0  0  0  0  0  0  0  0  0  0  0  0
    0.9752   -0.3152   -1.1882 C   0  0  0  0  0  0  0  0  0  0  0  0
   -1.4102    3.6317   -0.5293 C   0  0  0  0  0  0  0  0  0  0  0  0
    0.4712   -0.5390    1.2568 C   0  0  0  0  0  0  0  0  0  0  0  0
   -0.6087    1.3369   -0.0132 C   0  0  0  0  0  0  0  0  0  0  0  0
   -0.1306   -0.1213   -0.1210 C   0  0  0  0  0  0  0  0  0  0  0  0
   -1.3419   -0.9456   -0.3823 N   0  0  0  0  0  0  0  0  0  0  0  0
   -0.2272   -0.9373    2.1960 O   0  0  0  0  0  0  0  0  0  0  0  0
   -0.9714    2.2532   -1.4325 S   0  0  0  0  0  0  0  0  0  0  0  0
   -2.9466   -3.0382    0.2850 H   0  0  0  0  0  0  0  0  0  0  0  0
   -2.2671   -4.1632   -0.9016 H   0  0  0  0  0  0  0  0  0  0  0  0
   -3.0969   -2.6987   -1.4516 H   0  0  0  0  0  0  0  0  0  0  0  0
   -0.6215   -2.4895   -1.6250 H   0  0  0  0  0  0  0  0  0  0  0  0
   -0.4661   -2.8158    0.1140 H   0  0  0  0  0  0  0  0  0  0  0  0
    2.1805    1.6091    0.9261 H   0  0  0  0  0  0  0  0  0  0  0  0
    3.6566    0.6900    0.7053 H   0  0  0  0  0  0  0  0  0  0  0  0
    3.0860    0.0111   -1.4273 H   0  0  0  0  0  0  0  0  0  0  0  0
    2.1650    1.4970   -1.3668 H   0  0  0  0  0  0  0  0  0  0  0  0
   -1.5811    4.1552    1.5679 H   0  0  0  0  0  0  0  0  0  0  0  0
    2.3969   -1.4438    1.1110 H   0  0  0  0  0  0  0  0  0  0  0  0
    2.2170   -0.3055    2.4623 H   0  0  0  0  0  0  0  0  0  0  0  0
   -0.7732    1.7150    2.1331 H   0  0  0  0  0  0  0  0  0  0  0  0
    0.6119   -0.0974   -2.1999 H   0  0  0  0  0  0  0  0  0  0  0  0
    1.2856   -1.3689   -1.2074 H   0  0  0  0  0  0  0  0  0  0  0  0
   -1.7262    4.5342   -1.0343 H   0  0  0  0  0  0  0  0  0  0  0  0
   -1.9323   -0.8634    0.4511 H   0  0  0  0  0  0  0  0  0  0  0  0
  1  2  1  0
  2 13  1  0
  3  4  1  0
  3  6  1  0
  4  8  1  0
  5  7  1  0
  5  9  2  0
  6 10  1  0
  7 11  2  0
  8 12  1  0
  9 15  1  0
 10 12  1  0
 10 14  2  0
 11 12  1  0
 11 15  1  0
 12 13  1  0
  1 16  1  0
  1 17  1  0
  1 18  1  0
  2 19  1  0
  2 20  1  0
  3 21  1  0
  3 22  1  0
  4 23  1  0
  4 24  1  0
  5 25  1  0
  6 26  1  0
  6 27  1  0
  7 28  1  0
  8 29  1  0
  8 30  1  0
  9 31  1  0
 13 32  1  0
M  END
