
     RDKit          3D

 34 34  0  0  0  0  0  0  0  0999 V2000
    3.1698    2.3195    0.0921 C   0  0  0  0  0  0  0  0  0  0  0  0
   -2.8105   -0.0099    1.8489 C   0  0  0  0  0  0  0  0  0  0  0  0
    2.9294   -1.2167    0.8952 C   0  0  0  0  0  0  0  0  0  0  0  0
    0.8553   -1.9742   -2.0230 C   0  0  0  0  0  0  0  0  0  0  0  0
    0.6634    2.4755   -0.0501 C   0  0  0  0  0  0  0  0  0  0  0  0
   -0.5986    1.8970   -0.2082 C   0  0  0  0  0  0  0  0  0  0  0  0
   -2.1124   -0.0803   -0.6057 C   0  0  0  0  0  0  0  0  0  0  0  0
    1.8208    1.6897   -0.1028 C   0  0  0  0  0  0  0  0  0  0  0  0
   -2.5931   -0.8910    0.6181 C   0  0  0  0  0  0  0  0  0  0  0  0
   -0.7340    0.5207   -0.4418 C   0  0  0  0  0  0  0  0  0  0  0  0
    1.6894    0.3070   -0.3009 C   0  0  0  0  0  0  0  0  0  0  0  0
    0.4255   -0.2668   -0.5208 C   0  0  0  0  0  0  0  0  0  0  0  0
   -3.8625   -1.5711    0.3156 N   0  0  0  0  0  0  0  0  0  0  0  0
    2.8349   -0.4517   -0.3084 O   0  0  0  0  0  0  0  0  0  0  0  0
    0.2653   -1.6072   -0.7748 O   0  0  0  0  0  0  0  0  0  0  0  0
    3.1066    3.4127    0.0785 H   0  0  0  0  0  0  0  0  0  0  0  0
    3.5919    2.0162    1.0554 H   0  0  0  0  0  0  0  0  0  0  0  0
    3.8513    2.0234   -0.7122 H   0  0  0  0  0  0  0  0  0  0  0  0
   -1.8702    0.4390    2.1847 H   0  0  0  0  0  0  0  0  0  0  0  0
   -3.5196    0.8002    1.6445 H   0  0  0  0  0  0  0  0  0  0  0  0
   -3.2031   -0.5978    2.6866 H   0  0  0  0  0  0  0  0  0  0  0  0
    3.9412   -1.6298    0.9468 H   0  0  0  0  0  0  0  0  0  0  0  0
    2.2259   -2.0548    0.8900 H   0  0  0  0  0  0  0  0  0  0  0  0
    2.7745   -0.5938    1.7838 H   0  0  0  0  0  0  0  0  0  0  0  0
    0.7339   -1.1974   -2.7870 H   0  0  0  0  0  0  0  0  0  0  0  0
    0.3441   -2.8744   -2.3779 H   0  0  0  0  0  0  0  0  0  0  0  0
    1.9123   -2.2228   -1.8930 H   0  0  0  0  0  0  0  0  0  0  0  0
    0.7347    3.5473    0.1228 H   0  0  0  0  0  0  0  0  0  0  0  0
   -1.4795    2.5332   -0.1484 H   0  0  0  0  0  0  0  0  0  0  0  0
   -2.1015   -0.7196   -1.4991 H   0  0  0  0  0  0  0  0  0  0  0  0
   -2.8360    0.7147   -0.8321 H   0  0  0  0  0  0  0  0  0  0  0  0
   -1.8579   -1.6622    0.8736 H   0  0  0  0  0  0  0  0  0  0  0  0
   -3.7283   -2.1882   -0.4849 H   0  0  0  0  0  0  0  0  0  0  0  0
   -4.5630   -0.8865    0.0347 H   0  0  0  0  0  0  0  0  0  0  0  0
  1  8  1  0
  2  9  1  0
  3 14  1  0
  4 15  1  0
  5  6  2  0
  5  8  1  0
  6 10  1  0
  7  9  1  0
  7 10  1  0
  8 11  2  0
  9 13  1  0
 10 12  2  0
 11 12  1  0
 11 14  1  0
 12 15  1  0
  1 16  1  0
  1 17  1  0
  1 18  1  0
  2 19  1  0
  2 20  1  0
  2 21  1  0
  3 22  1  0
  3 23  1  0
  3 24  1  0
  4 25  1  0
  4 26  1  0
  4 27  1  0
  5 28  1  0
  6 29  1  0
  7 30  1  0
  7 31  1  0
  9 32  1  0
 13 33  1  0
 13 34  1  0
M  END
