
     RDKit          3D

 34 34  0  0  0  0  0  0  0  0999 V2000
    2.8927   -2.6382    1.3049 C   0  0  0  0  0  0  0  0  0  0  0  0
   -2.0520    0.0041   -1.2920 C   0  0  0  0  0  0  0  0  0  0  0  0
   -4.2403   -0.5622    0.8937 C   0  0  0  0  0  0  0  0  0  0  0  0
    1.5135    2.5979   -2.3366 C   0  0  0  0  0  0  0  0  0  0  0  0
    3.1093   -0.7860   -0.3841 C   0  0  0  0  0  0  0  0  0  0  0  0
    2.6206    0.3598   -1.0190 C   0  0  0  0  0  0  0  0  0  0  0  0
    1.1201   -0.8848    0.9639 C   0  0  0  0  0  0  0  0  0  0  0  0
    2.3575   -1.4264    0.6018 C   0  0  0  0  0  0  0  0  0  0  0  0
   -1.9434   -0.0436    0.2338 C   0  0  0  0  0  0  0  0  0  0  0  0
    0.6151    0.2738    0.3392 C   0  0  0  0  0  0  0  0  0  0  0  0
    1.3752    0.8922   -0.6708 C   0  0  0  0  0  0  0  0  0  0  0  0
   -0.7443    0.8146    0.7515 C   0  0  0  0  0  0  0  0  0  0  0  0
   -3.1996    0.4558    0.8504 N   0  0  0  0  0  0  0  0  0  0  0  0
   -0.7991    0.8524    2.1956 O   0  0  0  0  0  0  0  0  0  0  0  0
    0.8186    2.0026   -1.2483 O   0  0  0  0  0  0  0  0  0  0  0  0
    3.4539   -2.3370    2.1947 H   0  0  0  0  0  0  0  0  0  0  0  0
    2.0783   -3.3049    1.6077 H   0  0  0  0  0  0  0  0  0  0  0  0
    3.5539   -3.2121    0.6471 H   0  0  0  0  0  0  0  0  0  0  0  0
   -1.1519   -0.4009   -1.7652 H   0  0  0  0  0  0  0  0  0  0  0  0
   -2.8941   -0.5932   -1.6558 H   0  0  0  0  0  0  0  0  0  0  0  0
   -2.1886    1.0309   -1.6490 H   0  0  0  0  0  0  0  0  0  0  0  0
   -4.5490   -0.8720   -0.1086 H   0  0  0  0  0  0  0  0  0  0  0  0
   -3.9193   -1.4432    1.4590 H   0  0  0  0  0  0  0  0  0  0  0  0
   -5.1245   -0.1521    1.3920 H   0  0  0  0  0  0  0  0  0  0  0  0
    2.4780    3.0025   -2.0130 H   0  0  0  0  0  0  0  0  0  0  0  0
    0.9085    3.4335   -2.7015 H   0  0  0  0  0  0  0  0  0  0  0  0
    1.6361    1.8904   -3.1633 H   0  0  0  0  0  0  0  0  0  0  0  0
    4.0842   -1.1755   -0.6697 H   0  0  0  0  0  0  0  0  0  0  0  0
    3.2435    0.8142   -1.7825 H   0  0  0  0  0  0  0  0  0  0  0  0
    0.5331   -1.3667    1.7458 H   0  0  0  0  0  0  0  0  0  0  0  0
   -1.7833   -1.0807    0.5571 H   0  0  0  0  0  0  0  0  0  0  0  0
   -0.8715    1.8547    0.4303 H   0  0  0  0  0  0  0  0  0  0  0  0
   -2.9579    0.7167    1.8135 H   0  0  0  0  0  0  0  0  0  0  0  0
    0.0268    1.2833    2.4774 H   0  0  0  0  0  0  0  0  0  0  0  0
  1  8  1  0
  2  9  1  0
  3 13  1  0
  4 15  1  0
  5  6  2  0
  5  8  1  0
  6 11  1  0
  7  8  2  0
  7 10  1  0
  9 12  1  0
  9 13  1  0
 10 11  2  0
 10 12  1  0
 11 15  1  0
 12 14  1  0
  1 16  1  0
  1 17  1  0
  1 18  1  0
  2 19  1  0
  2 20  1  0
  2 21  1  0
  3 22  1  0
  3 23  1  0
  3 24  1  0
  4 25  1  0
  4 26  1  0
  4 27  1  0
  5 28  1  0
  6 29  1  0
  7 30  1  0
  9 31  1  0
 12 32  1  0
 13 33  1  0
 14 34  1  0
M  END
