
     RDKit          3D

 34 34  0  0  0  0  0  0  0  0999 V2000
   -4.5811    0.0983   -0.9702 C   0  0  0  0  0  0  0  0  0  0  0  0
    4.6231    2.4264   -0.2171 C   0  0  0  0  0  0  0  0  0  0  0  0
    2.8093   -2.6514   -1.0351 C   0  0  0  0  0  0  0  0  0  0  0  0
   -2.1955    0.0404   -0.1584 C   0  0  0  0  0  0  0  0  0  0  0  0
   -1.2428   -0.1730    1.0236 C   0  0  0  0  0  0  0  0  0  0  0  0
    0.6546    1.4867    0.8689 C   0  0  0  0  0  0  0  0  0  0  0  0
    1.9618    1.8276    0.5125 C   0  0  0  0  0  0  0  0  0  0  0  0
    1.0262   -0.7639    0.0781 C   0  0  0  0  0  0  0  0  0  0  0  0
   -3.6615   -0.2466    0.2007 C   0  0  0  0  0  0  0  0  0  0  0  0
    0.1776    0.1899    0.6596 C   0  0  0  0  0  0  0  0  0  0  0  0
    2.8112    0.8765   -0.0622 C   0  0  0  0  0  0  0  0  0  0  0  0
    2.3390   -0.4330   -0.2814 C   0  0  0  0  0  0  0  0  0  0  0  0
   -3.8414   -1.6517    0.5689 N   0  0  0  0  0  0  0  0  0  0  0  0
    4.1074    1.1232   -0.4437 O   0  0  0  0  0  0  0  0  0  0  0  0
    3.2305   -1.3077   -0.8536 O   0  0  0  0  0  0  0  0  0  0  0  0
   -4.3419   -0.4961   -1.8591 H   0  0  0  0  0  0  0  0  0  0  0  0
   -5.6305   -0.0840   -0.7131 H   0  0  0  0  0  0  0  0  0  0  0  0
   -4.4856    1.1563   -1.2374 H   0  0  0  0  0  0  0  0  0  0  0  0
    4.0688    3.1761   -0.7914 H   0  0  0  0  0  0  0  0  0  0  0  0
    4.6298    2.6696    0.8505 H   0  0  0  0  0  0  0  0  0  0  0  0
    5.6599    2.4413   -0.5669 H   0  0  0  0  0  0  0  0  0  0  0  0
    2.5592   -3.1216   -0.0783 H   0  0  0  0  0  0  0  0  0  0  0  0
    1.9717   -2.7108   -1.7377 H   0  0  0  0  0  0  0  0  0  0  0  0
    3.6455   -3.2082   -1.4691 H   0  0  0  0  0  0  0  0  0  0  0  0
   -1.8852   -0.5883   -1.0042 H   0  0  0  0  0  0  0  0  0  0  0  0
   -2.1119    1.0795   -0.5043 H   0  0  0  0  0  0  0  0  0  0  0  0
   -1.2684   -1.2157    1.3630 H   0  0  0  0  0  0  0  0  0  0  0  0
   -1.5637    0.4323    1.8809 H   0  0  0  0  0  0  0  0  0  0  0  0
    0.0104    2.2434    1.3112 H   0  0  0  0  0  0  0  0  0  0  0  0
    2.2855    2.8463    0.6958 H   0  0  0  0  0  0  0  0  0  0  0  0
    0.6342   -1.7626   -0.0858 H   0  0  0  0  0  0  0  0  0  0  0  0
   -3.9458    0.3725    1.0596 H   0  0  0  0  0  0  0  0  0  0  0  0
   -3.6278   -2.2474   -0.2311 H   0  0  0  0  0  0  0  0  0  0  0  0
   -4.8225   -1.8242    0.7884 H   0  0  0  0  0  0  0  0  0  0  0  0
  1  9  1  0
  2 14  1  0
  3 15  1  0
  4  5  1  0
  4  9  1  0
  5 10  1  0
  6  7  2  0
  6 10  1  0
  7 11  1  0
  8 10  2  0
  8 12  1  0
  9 13  1  0
 11 12  2  0
 11 14  1  0
 12 15  1  0
  1 16  1  0
  1 17  1  0
  1 18  1  0
  2 19  1  0
  2 20  1  0
  2 21  1  0
  3 22  1  0
  3 23  1  0
  3 24  1  0
  4 25  1  0
  4 26  1  0
  5 27  1  0
  5 28  1  0
  6 29  1  0
  7 30  1  0
  8 31  1  0
  9 32  1  0
 13 33  1  0
 13 34  1  0
M  END
