
     RDKit          3D

 34 34  0  0  0  0  0  0  0  0999 V2000
    2.4452   -0.2412   -1.7416 C   0  0  0  0  0  0  0  0  0  0  0  0
    4.7283    0.6319    0.0471 C   0  0  0  0  0  0  0  0  0  0  0  0
   -3.8637    1.9345   -1.4217 C   0  0  0  0  0  0  0  0  0  0  0  0
   -3.7204   -2.3540    1.2911 C   0  0  0  0  0  0  0  0  0  0  0  0
    1.7304    0.4112    0.6272 C   0  0  0  0  0  0  0  0  0  0  0  0
   -0.4992    1.1874   -0.2838 C   0  0  0  0  0  0  0  0  0  0  0  0
   -0.4315   -0.8466    1.0028 C   0  0  0  0  0  0  0  0  0  0  0  0
   -2.5321   -0.0625    0.1007 C   0  0  0  0  0  0  0  0  0  0  0  0
    2.5726   -0.5506   -0.2454 C   0  0  0  0  0  0  0  0  0  0  0  0
    0.2390    0.2495    0.4471 C   0  0  0  0  0  0  0  0  0  0  0  0
   -1.8781    1.0380   -0.4606 C   0  0  0  0  0  0  0  0  0  0  0  0
   -1.8099   -1.0081    0.8341 C   0  0  0  0  0  0  0  0  0  0  0  0
    3.9876   -0.6151    0.1733 N   0  0  0  0  0  0  0  0  0  0  0  0
   -2.4631    2.0319   -1.1985 O   0  0  0  0  0  0  0  0  0  0  0  0
   -2.3244   -2.1261    1.4339 O   0  0  0  0  0  0  0  0  0  0  0  0
    2.6847    0.8033   -1.9663 H   0  0  0  0  0  0  0  0  0  0  0  0
    1.4258   -0.4316   -2.0935 H   0  0  0  0  0  0  0  0  0  0  0  0
    3.1116   -0.8804   -2.3318 H   0  0  0  0  0  0  0  0  0  0  0  0
    5.7612    0.4655    0.3704 H   0  0  0  0  0  0  0  0  0  0  0  0
    4.7740    0.9798   -0.9886 H   0  0  0  0  0  0  0  0  0  0  0  0
    4.3146    1.4238    0.6780 H   0  0  0  0  0  0  0  0  0  0  0  0
   -4.1669    2.7960   -2.0244 H   0  0  0  0  0  0  0  0  0  0  0  0
   -4.1116    1.0296   -1.9864 H   0  0  0  0  0  0  0  0  0  0  0  0
   -4.4176    1.9771   -0.4781 H   0  0  0  0  0  0  0  0  0  0  0  0
   -3.9637   -3.2806    1.8198 H   0  0  0  0  0  0  0  0  0  0  0  0
   -4.3009   -1.5468    1.7498 H   0  0  0  0  0  0  0  0  0  0  0  0
   -3.9927   -2.4898    0.2392 H   0  0  0  0  0  0  0  0  0  0  0  0
    1.9562    0.2431    1.6892 H   0  0  0  0  0  0  0  0  0  0  0  0
    2.0091    1.4534    0.4257 H   0  0  0  0  0  0  0  0  0  0  0  0
   -0.0026    2.0475   -0.7286 H   0  0  0  0  0  0  0  0  0  0  0  0
    0.1193   -1.5894    1.5764 H   0  0  0  0  0  0  0  0  0  0  0  0
   -3.5986   -0.1824   -0.0325 H   0  0  0  0  0  0  0  0  0  0  0  0
    2.1855   -1.5683   -0.1054 H   0  0  0  0  0  0  0  0  0  0  0  0
    4.0320   -0.9297    1.1428 H   0  0  0  0  0  0  0  0  0  0  0  0
  1  9  1  0
  2 13  1  0
  3 14  1  0
  4 15  1  0
  5  9  1  0
  5 10  1  0
  6 10  2  0
  6 11  1  0
  7 10  1  0
  7 12  2  0
  8 11  2  0
  8 12  1  0
  9 13  1  0
 11 14  1  0
 12 15  1  0
  1 16  1  0
  1 17  1  0
  1 18  1  0
  2 19  1  0
  2 20  1  0
  2 21  1  0
  3 22  1  0
  3 23  1  0
  3 24  1  0
  4 25  1  0
  4 26  1  0
  4 27  1  0
  5 28  1  0
  5 29  1  0
  6 30  1  0
  7 31  1  0
  8 32  1  0
  9 33  1  0
 13 34  1  0
M  END
