
     RDKit          3D

 31 31  0  0  0  0  0  0  0  0999 V2000
    3.5004   -0.9935    0.5748 C   0  0  0  0  0  0  0  0  0  0  0  0
    3.3099    1.1773   -0.6947 C   0  0  0  0  0  0  0  0  0  0  0  0
   -3.0985    1.5056    0.1762 C   0  0  0  0  0  0  0  0  0  0  0  0
   -3.5200   -0.8721    0.8863 C   0  0  0  0  0  0  0  0  0  0  0  0
   -0.1641   -1.3008   -1.8351 C   0  0  0  0  0  0  0  0  0  0  0  0
    1.0965   -0.9439   -1.3644 C   0  0  0  0  0  0  0  0  0  0  0  0
   -1.3074   -0.9037   -1.1437 C   0  0  0  0  0  0  0  0  0  0  0  0
    2.6217    0.2295    0.2916 C   0  0  0  0  0  0  0  0  0  0  0  0
   -2.4778    0.2500    0.7923 C   0  0  0  0  0  0  0  0  0  0  0  0
    1.2375   -0.1689   -0.2030 C   0  0  0  0  0  0  0  0  0  0  0  0
   -1.2164   -0.1430    0.0340 C   0  0  0  0  0  0  0  0  0  0  0  0
    0.0695    0.2411    0.4678 C   0  0  0  0  0  0  0  0  0  0  0  0
    0.2297    1.0458    1.5656 O   0  0  0  0  0  0  0  0  0  0  0  0
    3.0080   -1.6741    1.2783 H   0  0  0  0  0  0  0  0  0  0  0  0
    3.7279   -1.5589   -0.3351 H   0  0  0  0  0  0  0  0  0  0  0  0
    4.4539   -0.6858    1.0182 H   0  0  0  0  0  0  0  0  0  0  0  0
    4.2718    1.5166   -0.2953 H   0  0  0  0  0  0  0  0  0  0  0  0
    2.6929    2.0636   -0.8805 H   0  0  0  0  0  0  0  0  0  0  0  0
    3.5021    0.6960   -1.6598 H   0  0  0  0  0  0  0  0  0  0  0  0
   -2.3832    2.3353    0.1640 H   0  0  0  0  0  0  0  0  0  0  0  0
   -3.4204    1.3300   -0.8565 H   0  0  0  0  0  0  0  0  0  0  0  0
   -3.9736    1.8275    0.7510 H   0  0  0  0  0  0  0  0  0  0  0  0
   -4.3306   -0.5815    1.5640 H   0  0  0  0  0  0  0  0  0  0  0  0
   -3.9757   -1.0993   -0.0830 H   0  0  0  0  0  0  0  0  0  0  0  0
   -3.0722   -1.7926    1.2766 H   0  0  0  0  0  0  0  0  0  0  0  0
   -0.2563   -1.8937   -2.7415 H   0  0  0  0  0  0  0  0  0  0  0  0
    1.9725   -1.2693   -1.9206 H   0  0  0  0  0  0  0  0  0  0  0  0
   -2.2740   -1.2005   -1.5428 H   0  0  0  0  0  0  0  0  0  0  0  0
    2.5337    0.7690    1.2418 H   0  0  0  0  0  0  0  0  0  0  0  0
   -2.2093    0.4755    1.8314 H   0  0  0  0  0  0  0  0  0  0  0  0
   -0.5484    1.6188    1.6422 H   0  0  0  0  0  0  0  0  0  0  0  0
  1  8  1  0
  2  8  1  0
  3  9  1  0
  4  9  1  0
  5  6  2  0
  5  7  1  0
  6 10  1  0
  7 11  2  0
  8 10  1  0
  9 11  1  0
 10 12  2  0
 11 12  1  0
 12 13  1  0
  1 14  1  0
  1 15  1  0
  1 16  1  0
  2 17  1  0
  2 18  1  0
  2 19  1  0
  3 20  1  0
  3 21  1  0
  3 22  1  0
  4 23  1  0
  4 24  1  0
  4 25  1  0
  5 26  1  0
  6 27  1  0
  7 28  1  0
  8 29  1  0
  9 30  1  0
 13 31  1  0
M  END
