
     RDKit          3D

 35 35  0  0  0  0  0  0  0  0999 V2000
   -4.0961    0.2120    0.3990 C   0  0  0  0  0  0  0  0  0  0  0  0
   -3.6890    1.5221   -1.5662 C   0  0  0  0  0  0  0  0  0  0  0  0
    4.3428    1.6995    2.1217 C   0  0  0  0  0  0  0  0  0  0  0  0
    1.1451   -2.7117   -2.3628 C   0  0  0  0  0  0  0  0  0  0  0  0
    3.1698   -0.1441    0.3135 C   0  0  0  0  0  0  0  0  0  0  0  0
    2.5243   -1.0284   -0.5602 C   0  0  0  0  0  0  0  0  0  0  0  0
    1.0438    0.4666    1.2482 C   0  0  0  0  0  0  0  0  0  0  0  0
   -1.8074    0.6149   -0.3599 C   0  0  0  0  0  0  0  0  0  0  0  0
    2.4317    0.6107    1.2196 C   0  0  0  0  0  0  0  0  0  0  0  0
    0.3777   -0.4290    0.3877 C   0  0  0  0  0  0  0  0  0  0  0  0
   -1.1396   -0.5393    0.4374 C   0  0  0  0  0  0  0  0  0  0  0  0
    1.1333   -1.1725   -0.5363 C   0  0  0  0  0  0  0  0  0  0  0  0
   -3.2214    0.3914   -0.7610 N   0  0  0  0  0  0  0  0  0  0  0  0
   -1.5578   -0.5092    1.8120 O   0  0  0  0  0  0  0  0  0  0  0  0
    2.9335    1.5110    2.1171 O   0  0  0  0  0  0  0  0  0  0  0  0
    0.4249   -2.0015   -1.3638 O   0  0  0  0  0  0  0  0  0  0  0  0
   -4.0134    1.0383    1.1139 H   0  0  0  0  0  0  0  0  0  0  0  0
   -3.8801   -0.7292    0.9132 H   0  0  0  0  0  0  0  0  0  0  0  0
   -5.1436    0.1401    0.0832 H   0  0  0  0  0  0  0  0  0  0  0  0
   -3.6717    2.4645   -1.0067 H   0  0  0  0  0  0  0  0  0  0  0  0
   -3.0698    1.6406   -2.4624 H   0  0  0  0  0  0  0  0  0  0  0  0
   -4.7124    1.3480   -1.9172 H   0  0  0  0  0  0  0  0  0  0  0  0
    4.6926    2.0871    1.1592 H   0  0  0  0  0  0  0  0  0  0  0  0
    4.8638    0.7741    2.3887 H   0  0  0  0  0  0  0  0  0  0  0  0
    4.5778    2.4461    2.8864 H   0  0  0  0  0  0  0  0  0  0  0  0
    0.4229   -3.2890   -2.9481 H   0  0  0  0  0  0  0  0  0  0  0  0
    1.8490   -3.4190   -1.9123 H   0  0  0  0  0  0  0  0  0  0  0  0
    1.6548   -2.0253   -3.0469 H   0  0  0  0  0  0  0  0  0  0  0  0
    4.2505   -0.0688    0.2540 H   0  0  0  0  0  0  0  0  0  0  0  0
    3.1436   -1.5910   -1.2515 H   0  0  0  0  0  0  0  0  0  0  0  0
    0.4690    1.0656    1.9538 H   0  0  0  0  0  0  0  0  0  0  0  0
   -1.7336    1.5448    0.2210 H   0  0  0  0  0  0  0  0  0  0  0  0
   -1.2321    0.7622   -1.2838 H   0  0  0  0  0  0  0  0  0  0  0  0
   -1.4666   -1.5064    0.0398 H   0  0  0  0  0  0  0  0  0  0  0  0
   -1.0164   -1.1750    2.2697 H   0  0  0  0  0  0  0  0  0  0  0  0
  1 13  1  0
  2 13  1  0
  3 15  1  0
  4 16  1  0
  5  6  2  0
  5  9  1  0
  6 12  1  0
  7  9  2  0
  7 10  1  0
  8 11  1  0
  8 13  1  0
  9 15  1  0
 10 11  1  0
 10 12  2  0
 11 14  1  0
 12 16  1  0
  1 17  1  0
  1 18  1  0
  1 19  1  0
  2 20  1  0
  2 21  1  0
  2 22  1  0
  3 23  1  0
  3 24  1  0
  3 25  1  0
  4 26  1  0
  4 27  1  0
  4 28  1  0
  5 29  1  0
  6 30  1  0
  7 31  1  0
  8 32  1  0
  8 33  1  0
 11 34  1  0
 14 35  1  0
M  END
