
     RDKit          3D

 35 35  0  0  0  0  0  0  0  0999 V2000
    4.1853    0.0079   -0.7460 C   0  0  0  0  0  0  0  0  0  0  0  0
    4.0371   -0.2782    1.6264 C   0  0  0  0  0  0  0  0  0  0  0  0
   -3.7036   -2.7563   -2.1148 C   0  0  0  0  0  0  0  0  0  0  0  0
   -3.2208    2.4501    1.5398 C   0  0  0  0  0  0  0  0  0  0  0  0
   -0.7312   -0.8185   -1.3611 C   0  0  0  0  0  0  0  0  0  0  0  0
   -1.2301    1.0211    0.1213 C   0  0  0  0  0  0  0  0  0  0  0  0
   -2.9829   -0.4901   -0.5744 C   0  0  0  0  0  0  0  0  0  0  0  0
    2.0030   -0.1558    0.3325 C   0  0  0  0  0  0  0  0  0  0  0  0
   -0.2935    0.3031   -0.6393 C   0  0  0  0  0  0  0  0  0  0  0  0
   -2.0690   -1.2188   -1.3340 C   0  0  0  0  0  0  0  0  0  0  0  0
   -2.5707    0.6324    0.1521 C   0  0  0  0  0  0  0  0  0  0  0  0
    1.1712    0.6860   -0.6701 C   0  0  0  0  0  0  0  0  0  0  0  0
    3.4028    0.3317    0.4520 N   0  0  0  0  0  0  0  0  0  0  0  0
    1.3418    2.0741   -0.3562 O   0  0  0  0  0  0  0  0  0  0  0  0
   -2.3469   -2.3299   -2.0828 O   0  0  0  0  0  0  0  0  0  0  0  0
   -3.5697    1.2542    0.8529 O   0  0  0  0  0  0  0  0  0  0  0  0
    4.2018   -1.0686   -0.9510 H   0  0  0  0  0  0  0  0  0  0  0  0
    3.7916    0.5235   -1.6272 H   0  0  0  0  0  0  0  0  0  0  0  0
    5.2199    0.3510   -0.6312 H   0  0  0  0  0  0  0  0  0  0  0  0
    3.4998   -0.0025    2.5407 H   0  0  0  0  0  0  0  0  0  0  0  0
    5.0620    0.0907    1.7453 H   0  0  0  0  0  0  0  0  0  0  0  0
    4.0680   -1.3718    1.5587 H   0  0  0  0  0  0  0  0  0  0  0  0
   -3.7617   -3.6363   -2.7627 H   0  0  0  0  0  0  0  0  0  0  0  0
   -4.3510   -1.9842   -2.5438 H   0  0  0  0  0  0  0  0  0  0  0  0
   -4.0471   -3.0536   -1.1185 H   0  0  0  0  0  0  0  0  0  0  0  0
   -2.4948    2.2499    2.3347 H   0  0  0  0  0  0  0  0  0  0  0  0
   -4.1282    2.8414    2.0100 H   0  0  0  0  0  0  0  0  0  0  0  0
   -2.8506    3.2124    0.8462 H   0  0  0  0  0  0  0  0  0  0  0  0
   -0.0256   -1.3935   -1.9576 H   0  0  0  0  0  0  0  0  0  0  0  0
   -0.8832    1.8855    0.6799 H   0  0  0  0  0  0  0  0  0  0  0  0
   -4.0307   -0.7667   -0.5250 H   0  0  0  0  0  0  0  0  0  0  0  0
    1.9711   -1.2214    0.0706 H   0  0  0  0  0  0  0  0  0  0  0  0
    1.5267   -0.0538    1.3176 H   0  0  0  0  0  0  0  0  0  0  0  0
    1.5438    0.5521   -1.6919 H   0  0  0  0  0  0  0  0  0  0  0  0
    2.2657    2.1330   -0.0371 H   0  0  0  0  0  0  0  0  0  0  0  0
  1 13  1  0
  2 13  1  0
  3 15  1  0
  4 16  1  0
  5  9  2  0
  5 10  1  0
  6  9  1  0
  6 11  2  0
  7 10  2  0
  7 11  1  0
  8 12  1  0
  8 13  1  0
  9 12  1  0
 10 15  1  0
 11 16  1  0
 12 14  1  0
  1 17  1  0
  1 18  1  0
  1 19  1  0
  2 20  1  0
  2 21  1  0
  2 22  1  0
  3 23  1  0
  3 24  1  0
  3 25  1  0
  4 26  1  0
  4 27  1  0
  4 28  1  0
  5 29  1  0
  6 30  1  0
  7 31  1  0
  8 32  1  0
  8 33  1  0
 12 34  1  0
 14 35  1  0
M  END
