
     RDKit          3D

 33 35  0  0  0  0  0  0  0  0999 V2000
   -2.3471   -1.6067   -0.5675 C   0  0  0  0  0  0  0  0  0  0  0  0
   -0.1143    2.7212    0.2410 C   0  0  0  0  0  0  0  0  0  0  0  0
    2.7419   -2.1933    0.0684 C   0  0  0  0  0  0  0  0  0  0  0  0
    0.8370    3.4388   -0.7089 C   0  0  0  0  0  0  0  0  0  0  0  0
    1.5034   -3.0462    0.3222 C   0  0  0  0  0  0  0  0  0  0  0  0
   -1.4263    0.0065    1.2199 C   0  0  0  0  0  0  0  0  0  0  0  0
   -2.5793   -0.3339    0.2445 C   0  0  0  0  0  0  0  0  0  0  0  0
    0.4695    1.3577    0.1775 C   0  0  0  0  0  0  0  0  0  0  0  0
    2.1018   -0.8579   -0.0240 C   0  0  0  0  0  0  0  0  0  0  0  0
   -0.0494    0.1457    0.6262 C   0  0  0  0  0  0  0  0  0  0  0  0
    2.6109    0.3577   -0.4533 C   0  0  0  0  0  0  0  0  0  0  0  0
    0.8066   -0.9463    0.5020 C   0  0  0  0  0  0  0  0  0  0  0  0
    1.7658    1.4543   -0.3510 C   0  0  0  0  0  0  0  0  0  0  0  0
    4.5395    0.5406   -1.1936 I   0  0  0  0  0  0  0  0  0  0  0  0
   -2.8956    0.7741   -0.6660 N   0  0  0  0  0  0  0  0  0  0  0  0
    0.4827   -2.2189    0.9181 O   0  0  0  0  0  0  0  0  0  0  0  0
    2.1000    2.7423   -0.7086 O   0  0  0  0  0  0  0  0  0  0  0  0
   -1.5174   -1.4997   -1.2741 H   0  0  0  0  0  0  0  0  0  0  0  0
   -2.1343   -2.4541    0.0923 H   0  0  0  0  0  0  0  0  0  0  0  0
   -3.2404   -1.8648   -1.1481 H   0  0  0  0  0  0  0  0  0  0  0  0
   -1.1474    2.7969   -0.0998 H   0  0  0  0  0  0  0  0  0  0  0  0
   -0.0266    3.1156    1.2587 H   0  0  0  0  0  0  0  0  0  0  0  0
    3.2605   -2.5106   -0.8397 H   0  0  0  0  0  0  0  0  0  0  0  0
    3.4235   -2.2266    0.9247 H   0  0  0  0  0  0  0  0  0  0  0  0
    0.4514    3.4364   -1.7368 H   0  0  0  0  0  0  0  0  0  0  0  0
    0.9957    4.4801   -0.4103 H   0  0  0  0  0  0  0  0  0  0  0  0
    1.1013   -3.4519   -0.6152 H   0  0  0  0  0  0  0  0  0  0  0  0
    1.7229   -3.8882    0.9868 H   0  0  0  0  0  0  0  0  0  0  0  0
   -1.6746    0.9284    1.7631 H   0  0  0  0  0  0  0  0  0  0  0  0
   -1.3941   -0.7656    2.0008 H   0  0  0  0  0  0  0  0  0  0  0  0
   -3.4737   -0.5007    0.8588 H   0  0  0  0  0  0  0  0  0  0  0  0
   -3.2340    1.5683   -0.1256 H   0  0  0  0  0  0  0  0  0  0  0  0
   -3.6599    0.5008   -1.2826 H   0  0  0  0  0  0  0  0  0  0  0  0
  1  7  1  0
  2  4  1  0
  2  8  1  0
  3  5  1  0
  3  9  1  0
  4 17  1  0
  5 16  1  0
  6  7  1  0
  6 10  1  0
  7 15  1  0
  8 10  1  0
  8 13  2  0
  9 11  2  0
  9 12  1  0
 10 12  2  0
 11 13  1  0
 11 14  1  0
 12 16  1  0
 13 17  1  0
  1 18  1  0
  1 19  1  0
  1 20  1  0
  2 21  1  0
  2 22  1  0
  3 23  1  0
  3 24  1  0
  4 25  1  0
  4 26  1  0
  5 27  1  0
  5 28  1  0
  6 29  1  0
  6 30  1  0
  7 31  1  0
 15 32  1  0
 15 33  1  0
M  END
