
     RDKit          3D

 34 35  0  0  0  0  0  0  0  0999 V2000
   -4.5817    0.9163    0.8168 C   0  0  0  0  0  0  0  0  0  0  0  0
   -0.8476   -2.6621   -0.6657 C   0  0  0  0  0  0  0  0  0  0  0  0
   -4.1664    0.9324   -0.6477 C   0  0  0  0  0  0  0  0  0  0  0  0
    1.9834   -0.5594   -1.0780 C   0  0  0  0  0  0  0  0  0  0  0  0
    3.3325   -0.2403   -1.2821 C   0  0  0  0  0  0  0  0  0  0  0  0
   -2.6901    0.5908   -0.8715 C   0  0  0  0  0  0  0  0  0  0  0  0
    2.0450    0.4703    1.1284 C   0  0  0  0  0  0  0  0  0  0  0  0
    5.4243    1.4391    0.9907 C   0  0  0  0  0  0  0  0  0  0  0  0
   -0.9744   -1.1417   -0.7224 C   0  0  0  0  0  0  0  0  0  0  0  0
    1.3310   -0.2059    0.1242 C   0  0  0  0  0  0  0  0  0  0  0  0
    3.9969    0.4250   -0.2759 C   0  0  0  0  0  0  0  0  0  0  0  0
    3.3706    0.7702    0.8967 C   0  0  0  0  0  0  0  0  0  0  0  0
   -0.1086   -0.5222    0.3895 C   0  0  0  0  0  0  0  0  0  0  0  0
   -2.3993   -0.7977   -0.5045 N   0  0  0  0  0  0  0  0  0  0  0  0
   -0.5735   -0.2869    1.5079 O   0  0  0  0  0  0  0  0  0  0  0  0
    5.2996    0.8109   -0.3030 O   0  0  0  0  0  0  0  0  0  0  0  0
    4.2014    1.4182    1.7560 O   0  0  0  0  0  0  0  0  0  0  0  0
   -3.9458    1.5789    1.4122 H   0  0  0  0  0  0  0  0  0  0  0  0
   -4.5257   -0.0906    1.2409 H   0  0  0  0  0  0  0  0  0  0  0  0
   -5.6163    1.2602    0.9167 H   0  0  0  0  0  0  0  0  0  0  0  0
   -1.4693   -3.1373   -1.4325 H   0  0  0  0  0  0  0  0  0  0  0  0
    0.1869   -2.9800   -0.8323 H   0  0  0  0  0  0  0  0  0  0  0  0
   -1.1517   -3.0556    0.3116 H   0  0  0  0  0  0  0  0  0  0  0  0
   -4.3543    1.9348   -1.0511 H   0  0  0  0  0  0  0  0  0  0  0  0
   -4.8026    0.2416   -1.2142 H   0  0  0  0  0  0  0  0  0  0  0  0
    1.4699   -1.0917   -1.8732 H   0  0  0  0  0  0  0  0  0  0  0  0
    3.8421   -0.5090   -2.2014 H   0  0  0  0  0  0  0  0  0  0  0  0
   -2.0679    1.2897   -0.3007 H   0  0  0  0  0  0  0  0  0  0  0  0
   -2.4653    0.7395   -1.9344 H   0  0  0  0  0  0  0  0  0  0  0  0
    1.5763    0.7551    2.0658 H   0  0  0  0  0  0  0  0  0  0  0  0
    5.7301    2.4817    0.8461 H   0  0  0  0  0  0  0  0  0  0  0  0
    6.2035    0.9189    1.5595 H   0  0  0  0  0  0  0  0  0  0  0  0
   -0.6715   -0.7786   -1.7087 H   0  0  0  0  0  0  0  0  0  0  0  0
   -2.5815   -0.9147    0.4981 H   0  0  0  0  0  0  0  0  0  0  0  0
  1  3  1  0
  2  9  1  0
  3  6  1  0
  4  5  2  0
  4 10  1  0
  5 11  1  0
  6 14  1  0
  7 10  2  0
  7 12  1  0
  8 16  1  0
  8 17  1  0
  9 13  1  0
  9 14  1  0
 10 13  1  0
 11 12  2  0
 11 16  1  0
 12 17  1  0
 13 15  2  0
  1 18  1  0
  1 19  1  0
  1 20  1  0
  2 21  1  0
  2 22  1  0
  2 23  1  0
  3 24  1  0
  3 25  1  0
  4 26  1  0
  5 27  1  0
  6 28  1  0
  6 29  1  0
  7 30  1  0
  8 31  1  0
  8 32  1  0
  9 33  1  0
 14 34  1  0
M  END
