
     RDKit          3D

 34 34  0  0  0  0  0  0  0  0999 V2000
   -3.8678    1.2781    1.1583 C   0  0  0  0  0  0  0  0  0  0  0  0
    0.7158   -3.1201   -1.2560 C   0  0  0  0  0  0  0  0  0  0  0  0
   -2.5051    0.7019    0.8062 C   0  0  0  0  0  0  0  0  0  0  0  0
   -2.5315   -0.8291    0.7988 C   0  0  0  0  0  0  0  0  0  0  0  0
    2.8867    3.0964   -0.2457 C   0  0  0  0  0  0  0  0  0  0  0  0
    3.5508    2.1789    0.5646 C   0  0  0  0  0  0  0  0  0  0  0  0
    1.8257    2.6768   -1.0460 C   0  0  0  0  0  0  0  0  0  0  0  0
    3.1536    0.8400    0.5725 C   0  0  0  0  0  0  0  0  0  0  0  0
    1.4272    1.3365   -1.0410 C   0  0  0  0  0  0  0  0  0  0  0  0
   -1.1574   -1.4503    0.5196 C   0  0  0  0  0  0  0  0  0  0  0  0
    0.6551   -1.5938   -1.1587 C   0  0  0  0  0  0  0  0  0  0  0  0
    2.0894    0.4050   -0.2323 C   0  0  0  0  0  0  0  0  0  0  0  0
    1.7145   -1.0460   -0.1851 C   0  0  0  0  0  0  0  0  0  0  0  0
   -0.7002   -1.1023   -0.8290 N   0  0  0  0  0  0  0  0  0  0  0  0
    2.2795   -1.7754    0.6334 O   0  0  0  0  0  0  0  0  0  0  0  0
   -4.1878    0.9501    2.1525 H   0  0  0  0  0  0  0  0  0  0  0  0
   -3.8280    2.3719    1.1583 H   0  0  0  0  0  0  0  0  0  0  0  0
   -4.6251    0.9654    0.4324 H   0  0  0  0  0  0  0  0  0  0  0  0
    1.7022   -3.4385   -1.6120 H   0  0  0  0  0  0  0  0  0  0  0  0
   -0.0309   -3.4994   -1.9620 H   0  0  0  0  0  0  0  0  0  0  0  0
    0.5525   -3.6062   -0.2886 H   0  0  0  0  0  0  0  0  0  0  0  0
   -1.7661    1.0571    1.5338 H   0  0  0  0  0  0  0  0  0  0  0  0
   -2.2036    1.0836   -0.1757 H   0  0  0  0  0  0  0  0  0  0  0  0
   -3.2584   -1.1844    0.0574 H   0  0  0  0  0  0  0  0  0  0  0  0
   -2.8791   -1.1878    1.7757 H   0  0  0  0  0  0  0  0  0  0  0  0
    3.1930    4.1396   -0.2505 H   0  0  0  0  0  0  0  0  0  0  0  0
    4.3766    2.5028    1.1931 H   0  0  0  0  0  0  0  0  0  0  0  0
    1.3021    3.3950   -1.6725 H   0  0  0  0  0  0  0  0  0  0  0  0
    3.6811    0.1350    1.2127 H   0  0  0  0  0  0  0  0  0  0  0  0
    0.5867    1.0515   -1.6666 H   0  0  0  0  0  0  0  0  0  0  0  0
   -1.2465   -2.5368    0.6250 H   0  0  0  0  0  0  0  0  0  0  0  0
   -0.4553   -1.0945    1.2813 H   0  0  0  0  0  0  0  0  0  0  0  0
    0.9127   -1.2159   -2.1561 H   0  0  0  0  0  0  0  0  0  0  0  0
   -1.3624   -1.4849   -1.5046 H   0  0  0  0  0  0  0  0  0  0  0  0
  1  3  1  0
  2 11  1  0
  3  4  1  0
  4 10  1  0
  5  6  2  0
  5  7  1  0
  6  8  1  0
  7  9  2  0
  8 12  2  0
  9 12  1  0
 10 14  1  0
 11 13  1  0
 11 14  1  0
 12 13  1  0
 13 15  2  0
  1 16  1  0
  1 17  1  0
  1 18  1  0
  2 19  1  0
  2 20  1  0
  2 21  1  0
  3 22  1  0
  3 23  1  0
  4 24  1  0
  4 25  1  0
  5 26  1  0
  6 27  1  0
  7 28  1  0
  8 29  1  0
  9 30  1  0
 10 31  1  0
 10 32  1  0
 11 33  1  0
 14 34  1  0
M  END
