
     RDKit          3D

 34 35  0  0  0  0  0  0  0  0999 V2000
    3.8868   -0.7667    0.3894 C   0  0  0  0  0  0  0  0  0  0  0  0
    3.1187    1.6083    0.5916 C   0  0  0  0  0  0  0  0  0  0  0  0
   -4.4590   -0.1674    0.1945 C   0  0  0  0  0  0  0  0  0  0  0  0
   -3.5294   -1.1459   -0.1487 C   0  0  0  0  0  0  0  0  0  0  0  0
   -4.0359    1.1391    0.4094 C   0  0  0  0  0  0  0  0  0  0  0  0
   -1.2155   -1.9300   -0.6821 C   0  0  0  0  0  0  0  0  0  0  0  0
    0.2505   -1.6007   -0.4125 C   0  0  0  0  0  0  0  0  0  0  0  0
   -0.2711    0.8621   -0.2273 C   0  0  0  0  0  0  0  0  0  0  0  0
    2.6731    0.1656    0.3535 C   0  0  0  0  0  0  0  0  0  0  0  0
   -2.1665   -0.8286   -0.2806 C   0  0  0  0  0  0  0  0  0  0  0  0
    0.5753   -0.2040   -0.9499 C   0  0  0  0  0  0  0  0  0  0  0  0
   -1.7350    0.5020   -0.0922 C   0  0  0  0  0  0  0  0  0  0  0  0
   -2.6885    1.4663    0.2744 C   0  0  0  0  0  0  0  0  0  0  0  0
    2.0196    0.0882   -0.9584 N   0  0  0  0  0  0  0  0  0  0  0  0
   -2.3724    2.7724    0.5276 O   0  0  0  0  0  0  0  0  0  0  0  0
    3.5842   -1.8082    0.2334 H   0  0  0  0  0  0  0  0  0  0  0  0
    4.3889   -0.7089    1.3612 H   0  0  0  0  0  0  0  0  0  0  0  0
    4.6202   -0.5063   -0.3823 H   0  0  0  0  0  0  0  0  0  0  0  0
    3.8245    1.9442   -0.1768 H   0  0  0  0  0  0  0  0  0  0  0  0
    3.6144    1.7027    1.5639 H   0  0  0  0  0  0  0  0  0  0  0  0
    2.2654    2.2949    0.5881 H   0  0  0  0  0  0  0  0  0  0  0  0
   -5.5099   -0.4228    0.2970 H   0  0  0  0  0  0  0  0  0  0  0  0
   -3.8729   -2.1651   -0.3145 H   0  0  0  0  0  0  0  0  0  0  0  0
   -4.7538    1.9063    0.6862 H   0  0  0  0  0  0  0  0  0  0  0  0
   -1.3531   -2.1229   -1.7536 H   0  0  0  0  0  0  0  0  0  0  0  0
   -1.4689   -2.8533   -0.1469 H   0  0  0  0  0  0  0  0  0  0  0  0
    0.8813   -2.3601   -0.8903 H   0  0  0  0  0  0  0  0  0  0  0  0
    0.4414   -1.6567    0.6663 H   0  0  0  0  0  0  0  0  0  0  0  0
   -0.1742    1.8010   -0.7869 H   0  0  0  0  0  0  0  0  0  0  0  0
    0.1052    1.0361    0.7875 H   0  0  0  0  0  0  0  0  0  0  0  0
    2.0071   -0.1329    1.1698 H   0  0  0  0  0  0  0  0  0  0  0  0
    0.2735   -0.1863   -2.0069 H   0  0  0  0  0  0  0  0  0  0  0  0
    2.4865   -0.6073   -1.5412 H   0  0  0  0  0  0  0  0  0  0  0  0
   -1.4104    2.8851    0.5023 H   0  0  0  0  0  0  0  0  0  0  0  0
  1  9  1  0
  2  9  1  0
  3  4  2  0
  3  5  1  0
  4 10  1  0
  5 13  2  0
  6  7  1  0
  6 10  1  0
  7 11  1  0
  8 11  1  0
  8 12  1  0
  9 14  1  0
 10 12  2  0
 11 14  1  0
 12 13  1  0
 13 15  1  0
  1 16  1  0
  1 17  1  0
  1 18  1  0
  2 19  1  0
  2 20  1  0
  2 21  1  0
  3 22  1  0
  4 23  1  0
  5 24  1  0
  6 25  1  0
  6 26  1  0
  7 27  1  0
  7 28  1  0
  8 29  1  0
  8 30  1  0
  9 31  1  0
 11 32  1  0
 14 33  1  0
 15 34  1  0
M  END
