
     RDKit          3D

 35 36  0  0  0  0  0  0  0  0999 V2000
   -5.1650    0.7908   -0.8595 C   0  0  0  0  0  0  0  0  0  0  0  0
   -4.2602    1.0532    0.3344 C   0  0  0  0  0  0  0  0  0  0  0  0
   -3.0120    0.1657    0.3644 C   0  0  0  0  0  0  0  0  0  0  0  0
   -2.0487    0.4430   -0.7975 C   0  0  0  0  0  0  0  0  0  0  0  0
    2.1196   -1.5242    0.5320 C   0  0  0  0  0  0  0  0  0  0  0  0
    3.4875   -1.7768    0.3868 C   0  0  0  0  0  0  0  0  0  0  0  0
    0.1117    0.0312    0.5182 C   0  0  0  0  0  0  0  0  0  0  0  0
    2.4620    0.8341    0.0361 C   0  0  0  0  0  0  0  0  0  0  0  0
    5.9418    0.6066   -0.4163 C   0  0  0  0  0  0  0  0  0  0  0  0
    1.5960   -0.2224    0.3630 C   0  0  0  0  0  0  0  0  0  0  0  0
   -0.7107   -0.3278   -0.7415 C   0  0  0  0  0  0  0  0  0  0  0  0
    4.3047   -0.7144    0.0712 C   0  0  0  0  0  0  0  0  0  0  0  0
    3.8059    0.5549   -0.1003 C   0  0  0  0  0  0  0  0  0  0  0  0
   -0.9432   -1.7760   -0.8395 N   0  0  0  0  0  0  0  0  0  0  0  0
    5.6513   -0.7722   -0.1088 O   0  0  0  0  0  0  0  0  0  0  0  0
    4.7761    1.4566   -0.4102 O   0  0  0  0  0  0  0  0  0  0  0  0
   -4.6816    1.0726   -1.7994 H   0  0  0  0  0  0  0  0  0  0  0  0
   -5.4449   -0.2659   -0.9162 H   0  0  0  0  0  0  0  0  0  0  0  0
   -6.0835    1.3800   -0.7708 H   0  0  0  0  0  0  0  0  0  0  0  0
   -4.8345    0.8738    1.2513 H   0  0  0  0  0  0  0  0  0  0  0  0
   -3.9679    2.1096    0.3461 H   0  0  0  0  0  0  0  0  0  0  0  0
   -3.3209   -0.8857    0.3589 H   0  0  0  0  0  0  0  0  0  0  0  0
   -2.5006    0.3426    1.3172 H   0  0  0  0  0  0  0  0  0  0  0  0
   -1.8285    1.5180   -0.8298 H   0  0  0  0  0  0  0  0  0  0  0  0
   -2.5449    0.2053   -1.7467 H   0  0  0  0  0  0  0  0  0  0  0  0
    1.4504   -2.3498    0.7677 H   0  0  0  0  0  0  0  0  0  0  0  0
    3.8899   -2.7751    0.5125 H   0  0  0  0  0  0  0  0  0  0  0  0
   -0.0303    1.0931    0.7596 H   0  0  0  0  0  0  0  0  0  0  0  0
   -0.2536   -0.5170    1.3968 H   0  0  0  0  0  0  0  0  0  0  0  0
    2.0978    1.8453   -0.1081 H   0  0  0  0  0  0  0  0  0  0  0  0
    6.6564    0.9872    0.3226 H   0  0  0  0  0  0  0  0  0  0  0  0
    6.4047    0.6543   -1.4088 H   0  0  0  0  0  0  0  0  0  0  0  0
   -0.1374   -0.0326   -1.6298 H   0  0  0  0  0  0  0  0  0  0  0  0
   -1.5099   -1.9756   -1.6628 H   0  0  0  0  0  0  0  0  0  0  0  0
   -1.4777   -2.1023   -0.0366 H   0  0  0  0  0  0  0  0  0  0  0  0
  1  2  1  0
  2  3  1  0
  3  4  1  0
  4 11  1  0
  5  6  2  0
  5 10  1  0
  6 12  1  0
  7 10  1  0
  7 11  1  0
  8 10  2  0
  8 13  1  0
  9 15  1  0
  9 16  1  0
 11 14  1  0
 12 13  2  0
 12 15  1  0
 13 16  1  0
  1 17  1  0
  1 18  1  0
  1 19  1  0
  2 20  1  0
  2 21  1  0
  3 22  1  0
  3 23  1  0
  4 24  1  0
  4 25  1  0
  5 26  1  0
  6 27  1  0
  7 28  1  0
  7 29  1  0
  8 30  1  0
  9 31  1  0
  9 32  1  0
 11 33  1  0
 14 34  1  0
 14 35  1  0
M  END
