
     RDKit          3D

 35 35  0  0  0  0  0  0  0  0999 V2000
    3.9215   -0.1152    2.2021 C   0  0  0  0  0  0  0  0  0  0  0  0
   -2.8894   -1.4886    0.2783 C   0  0  0  0  0  0  0  0  0  0  0  0
    2.6615   -0.3514   -3.0203 C   0  0  0  0  0  0  0  0  0  0  0  0
   -1.0617    1.2717    3.1586 C   0  0  0  0  0  0  0  0  0  0  0  0
    3.5348    0.3711    1.0152 C   0  0  0  0  0  0  0  0  0  0  0  0
   -1.9453    0.5650   -0.9134 C   0  0  0  0  0  0  0  0  0  0  0  0
    1.0911    0.7126    1.4123 C   0  0  0  0  0  0  0  0  0  0  0  0
    0.5248    0.2316   -1.2684 C   0  0  0  0  0  0  0  0  0  0  0  0
   -2.5781   -0.8340   -1.0676 C   0  0  0  0  0  0  0  0  0  0  0  0
    2.1408    0.3993    0.5292 C   0  0  0  0  0  0  0  0  0  0  0  0
   -0.5255    0.5286   -0.3785 C   0  0  0  0  0  0  0  0  0  0  0  0
    1.8522    0.1715   -0.8304 C   0  0  0  0  0  0  0  0  0  0  0  0
   -0.2356    0.7713    0.9735 C   0  0  0  0  0  0  0  0  0  0  0  0
   -3.8280   -0.7344   -1.8356 N   0  0  0  0  0  0  0  0  0  0  0  0
    2.9222   -0.1076   -1.6449 O   0  0  0  0  0  0  0  0  0  0  0  0
   -1.3087    1.0551    1.7759 O   0  0  0  0  0  0  0  0  0  0  0  0
    4.9719   -0.1139    2.4762 H   0  0  0  0  0  0  0  0  0  0  0  0
    3.2239   -0.5434    2.9137 H   0  0  0  0  0  0  0  0  0  0  0  0
   -3.3817   -2.4580    0.1393 H   0  0  0  0  0  0  0  0  0  0  0  0
   -1.9740   -1.6746    0.8487 H   0  0  0  0  0  0  0  0  0  0  0  0
   -3.5493   -0.8608    0.8876 H   0  0  0  0  0  0  0  0  0  0  0  0
    2.0275   -1.2344   -3.1519 H   0  0  0  0  0  0  0  0  0  0  0  0
    2.2225    0.5288   -3.5013 H   0  0  0  0  0  0  0  0  0  0  0  0
    3.6185   -0.5544   -3.5106 H   0  0  0  0  0  0  0  0  0  0  0  0
   -0.6229    0.3840    3.6259 H   0  0  0  0  0  0  0  0  0  0  0  0
   -0.4330    2.1546    3.3132 H   0  0  0  0  0  0  0  0  0  0  0  0
   -2.0242    1.4606    3.6439 H   0  0  0  0  0  0  0  0  0  0  0  0
    4.2842    0.7535    0.3253 H   0  0  0  0  0  0  0  0  0  0  0  0
   -2.5812    1.2090   -0.2929 H   0  0  0  0  0  0  0  0  0  0  0  0
   -1.9130    1.0643   -1.8925 H   0  0  0  0  0  0  0  0  0  0  0  0
    1.3375    0.9215    2.4478 H   0  0  0  0  0  0  0  0  0  0  0  0
    0.2723    0.0533   -2.3089 H   0  0  0  0  0  0  0  0  0  0  0  0
   -1.8967   -1.4898   -1.6231 H   0  0  0  0  0  0  0  0  0  0  0  0
   -3.6293   -0.3833   -2.7712 H   0  0  0  0  0  0  0  0  0  0  0  0
   -4.2294   -1.6637   -1.9555 H   0  0  0  0  0  0  0  0  0  0  0  0
  1  5  2  3
  2  9  1  0
  3 15  1  0
  4 16  1  0
  5 10  1  0
  6  9  1  0
  6 11  1  0
  7 10  2  0
  7 13  1  0
  8 11  1  0
  8 12  2  0
  9 14  1  0
 10 12  1  0
 11 13  2  0
 12 15  1  0
 13 16  1  0
  1 17  1  0
  1 18  1  0
  2 19  1  0
  2 20  1  0
  2 21  1  0
  3 22  1  0
  3 23  1  0
  3 24  1  0
  4 25  1  0
  4 26  1  0
  4 27  1  0
  5 28  1  0
  6 29  1  0
  6 30  1  0
  7 31  1  0
  8 32  1  0
  9 33  1  0
 14 34  1  0
 14 35  1  0
M  END
