
     RDKit          3D

 32 33  0  0  0  0  0  0  0  0999 V2000
   -3.6157    1.4401    1.8026 C   0  0  0  0  0  0  0  0  0  0  0  0
   -1.5943   -0.6008   -1.6011 C   0  0  0  0  0  0  0  0  0  0  0  0
   -3.3405    0.4253    0.7028 C   0  0  0  0  0  0  0  0  0  0  0  0
    1.2984   -0.1361    1.3242 C   0  0  0  0  0  0  0  0  0  0  0  0
    2.4273    0.6912    1.3269 C   0  0  0  0  0  0  0  0  0  0  0  0
    3.9129    0.2628   -1.9105 C   0  0  0  0  0  0  0  0  0  0  0  0
    4.7503    1.1652   -1.2955 C   0  0  0  0  0  0  0  0  0  0  0  0
   -0.2856   -1.7857    0.2406 C   0  0  0  0  0  0  0  0  0  0  0  0
    1.7544   -0.8687   -0.9539 C   0  0  0  0  0  0  0  0  0  0  0  0
   -1.6227   -1.1038   -0.1535 C   0  0  0  0  0  0  0  0  0  0  0  0
    0.9508   -0.9094    0.2035 C   0  0  0  0  0  0  0  0  0  0  0  0
    2.8931   -0.0428   -0.9708 C   0  0  0  0  0  0  0  0  0  0  0  0
    3.1884    0.7047    0.1625 C   0  0  0  0  0  0  0  0  0  0  0  0
   -1.9603   -0.0396    0.8057 N   0  0  0  0  0  0  0  0  0  0  0  0
    4.3179    1.4395   -0.0370 O   0  0  0  0  0  0  0  0  0  0  0  0
   -4.6517    1.7889    1.7428 H   0  0  0  0  0  0  0  0  0  0  0  0
   -3.4650    1.0004    2.7945 H   0  0  0  0  0  0  0  0  0  0  0  0
   -2.9606    2.3131    1.7108 H   0  0  0  0  0  0  0  0  0  0  0  0
   -0.9425    0.2715   -1.7179 H   0  0  0  0  0  0  0  0  0  0  0  0
   -2.5948   -0.3164   -1.9427 H   0  0  0  0  0  0  0  0  0  0  0  0
   -1.2366   -1.3855   -2.2766 H   0  0  0  0  0  0  0  0  0  0  0  0
   -3.5280    0.8992   -0.2660 H   0  0  0  0  0  0  0  0  0  0  0  0
   -4.0359   -0.4139    0.8150 H   0  0  0  0  0  0  0  0  0  0  0  0
    0.6770   -0.1743    2.2188 H   0  0  0  0  0  0  0  0  0  0  0  0
    2.6998    1.2902    2.1868 H   0  0  0  0  0  0  0  0  0  0  0  0
    4.0232   -0.1273   -2.9118 H   0  0  0  0  0  0  0  0  0  0  0  0
    5.6501    1.6806   -1.6007 H   0  0  0  0  0  0  0  0  0  0  0  0
   -0.1217   -2.6527   -0.4140 H   0  0  0  0  0  0  0  0  0  0  0  0
   -0.3805   -2.2106    1.2498 H   0  0  0  0  0  0  0  0  0  0  0  0
    1.5031   -1.4643   -1.8267 H   0  0  0  0  0  0  0  0  0  0  0  0
   -2.3893   -1.8872   -0.0843 H   0  0  0  0  0  0  0  0  0  0  0  0
   -1.3211    0.7465    0.6757 H   0  0  0  0  0  0  0  0  0  0  0  0
  1  3  1  0
  2 10  1  0
  3 14  1  0
  4  5  2  0
  4 11  1  0
  5 13  1  0
  6  7  2  0
  6 12  1  0
  7 15  1  0
  8 10  1  0
  8 11  1  0
  9 11  2  0
  9 12  1  0
 10 14  1  0
 12 13  2  0
 13 15  1  0
  1 16  1  0
  1 17  1  0
  1 18  1  0
  2 19  1  0
  2 20  1  0
  2 21  1  0
  3 22  1  0
  3 23  1  0
  4 24  1  0
  5 25  1  0
  6 26  1  0
  7 27  1  0
  8 28  1  0
  8 29  1  0
  9 30  1  0
 10 31  1  0
 14 32  1  0
M  END
