
     RDKit          3D

 38 38  0  0  0  0  0  0  0  0999 V2000
   -3.4375   -1.1564   -0.9384 C   0  0  0  0  0  0  0  0  0  0  0  0
    4.0474    0.8437    1.0558 C   0  0  0  0  0  0  0  0  0  0  0  0
   -0.1564   -3.6046    0.6397 C   0  0  0  0  0  0  0  0  0  0  0  0
    0.9548    3.4637   -1.1369 C   0  0  0  0  0  0  0  0  0  0  0  0
   -2.2637    0.0393    0.9943 C   0  0  0  0  0  0  0  0  0  0  0  0
   -0.2403    1.1690    0.0113 C   0  0  0  0  0  0  0  0  0  0  0  0
    1.1663   -1.2309   -0.1248 C   0  0  0  0  0  0  0  0  0  0  0  0
   -3.3409    0.1239   -0.1086 C   0  0  0  0  0  0  0  0  0  0  0  0
    4.0623    0.2904   -0.3316 C   0  0  0  0  0  0  0  0  0  0  0  0
   -0.8463   -0.0216    0.4582 C   0  0  0  0  0  0  0  0  0  0  0  0
    1.7778   -0.0434   -0.5482 C   0  0  0  0  0  0  0  0  0  0  0  0
   -0.1371   -1.2325    0.3775 C   0  0  0  0  0  0  0  0  0  0  0  0
    1.0596    1.1664   -0.5013 C   0  0  0  0  0  0  0  0  0  0  0  0
   -4.6616    0.3879    0.4824 N   0  0  0  0  0  0  0  0  0  0  0  0
    3.0855   -0.1215   -1.0657 N   0  0  0  0  0  0  0  0  0  0  0  0
    5.2872    0.2339   -0.8754 O   0  0  0  0  0  0  0  0  0  0  0  0
   -0.8019   -2.3490    0.8116 O   0  0  0  0  0  0  0  0  0  0  0  0
    1.7206    2.2808   -0.9544 O   0  0  0  0  0  0  0  0  0  0  0  0
   -4.2461   -1.0850   -1.6749 H   0  0  0  0  0  0  0  0  0  0  0  0
   -3.6328   -2.0312   -0.3080 H   0  0  0  0  0  0  0  0  0  0  0  0
   -2.5127   -1.3377   -1.4952 H   0  0  0  0  0  0  0  0  0  0  0  0
    5.0559    0.8291    1.4799 H   0  0  0  0  0  0  0  0  0  0  0  0
    3.4027    0.2409    1.7006 H   0  0  0  0  0  0  0  0  0  0  0  0
    3.6920    1.8768    1.0375 H   0  0  0  0  0  0  0  0  0  0  0  0
    0.0570   -3.7995   -0.4165 H   0  0  0  0  0  0  0  0  0  0  0  0
    0.7524   -3.6658    1.2471 H   0  0  0  0  0  0  0  0  0  0  0  0
   -0.8422   -4.3825    0.9890 H   0  0  0  0  0  0  0  0  0  0  0  0
    0.1036    3.2901   -1.8038 H   0  0  0  0  0  0  0  0  0  0  0  0
    1.6006    4.2101   -1.6095 H   0  0  0  0  0  0  0  0  0  0  0  0
    0.6279    3.8699   -0.1743 H   0  0  0  0  0  0  0  0  0  0  0  0
   -2.3316    0.9257    1.6412 H   0  0  0  0  0  0  0  0  0  0  0  0
   -2.4658   -0.8083    1.6612 H   0  0  0  0  0  0  0  0  0  0  0  0
   -0.8102    2.0906    0.0798 H   0  0  0  0  0  0  0  0  0  0  0  0
    1.7471   -2.1435   -0.2051 H   0  0  0  0  0  0  0  0  0  0  0  0
   -3.1117    0.9561   -0.7847 H   0  0  0  0  0  0  0  0  0  0  0  0
   -4.6157    1.2159    1.0744 H   0  0  0  0  0  0  0  0  0  0  0  0
   -4.9204   -0.3851    1.0956 H   0  0  0  0  0  0  0  0  0  0  0  0
    5.1744   -0.1056   -1.7795 H   0  0  0  0  0  0  0  0  0  0  0  0
  1  8  1  0
  2  9  1  0
  3 17  1  0
  4 18  1  0
  5  8  1  0
  5 10  1  0
  6 10  2  0
  6 13  1  0
  7 11  1  0
  7 12  2  0
  8 14  1  0
  9 15  2  3
  9 16  1  0
 10 12  1  0
 11 13  2  0
 11 15  1  0
 12 17  1  0
 13 18  1  0
  1 19  1  0
  1 20  1  0
  1 21  1  0
  2 22  1  0
  2 23  1  0
  2 24  1  0
  3 25  1  0
  3 26  1  0
  3 27  1  0
  4 28  1  0
  4 29  1  0
  4 30  1  0
  5 31  1  0
  5 32  1  0
  6 33  1  0
  7 34  1  0
  8 35  1  0
 14 36  1  0
 14 37  1  0
 16 38  1  0
M  END
