
     RDKit          3D

 35 35  0  0  0  0  0  0  0  0999 V2000
    2.0929   -2.8362   -0.0859 C   0  0  0  0  0  0  0  0  0  0  0  0
   -2.9774   -0.9022   -1.1565 C   0  0  0  0  0  0  0  0  0  0  0  0
    3.6647   -0.3677   -0.6089 C   0  0  0  0  0  0  0  0  0  0  0  0
    2.3253    2.2378   -0.4269 C   0  0  0  0  0  0  0  0  0  0  0  0
   -0.4276    2.4072    0.5467 C   0  0  0  0  0  0  0  0  0  0  0  0
    0.1463   -1.3727    0.4628 C   0  0  0  0  0  0  0  0  0  0  0  0
   -1.9523   -0.1583    1.0612 C   0  0  0  0  0  0  0  0  0  0  0  0
    1.4831   -1.4667    0.0562 C   0  0  0  0  0  0  0  0  0  0  0  0
   -2.9545    0.1712   -0.0675 C   0  0  0  0  0  0  0  0  0  0  0  0
    2.2146   -0.2881   -0.1905 C   0  0  0  0  0  0  0  0  0  0  0  0
    1.5649    0.9723   -0.0890 C   0  0  0  0  0  0  0  0  0  0  0  0
    0.2204    1.0526    0.3732 C   0  0  0  0  0  0  0  0  0  0  0  0
   -0.4979   -0.1361    0.6278 C   0  0  0  0  0  0  0  0  0  0  0  0
   -4.3148    0.3011    0.4766 N   0  0  0  0  0  0  0  0  0  0  0  0
    2.8315   -3.0050    0.7039 H   0  0  0  0  0  0  0  0  0  0  0  0
    2.5674   -2.9458   -1.0664 H   0  0  0  0  0  0  0  0  0  0  0  0
    1.3364   -3.6247   -0.0087 H   0  0  0  0  0  0  0  0  0  0  0  0
   -2.0128   -0.9638   -1.6706 H   0  0  0  0  0  0  0  0  0  0  0  0
   -3.7328   -0.6722   -1.9167 H   0  0  0  0  0  0  0  0  0  0  0  0
   -3.2059   -1.8910   -0.7431 H   0  0  0  0  0  0  0  0  0  0  0  0
    4.2534    0.4258   -0.1370 H   0  0  0  0  0  0  0  0  0  0  0  0
    4.1385   -1.3029   -0.2980 H   0  0  0  0  0  0  0  0  0  0  0  0
    3.7443   -0.2838   -1.6971 H   0  0  0  0  0  0  0  0  0  0  0  0
    2.8412    2.6114    0.4628 H   0  0  0  0  0  0  0  0  0  0  0  0
    1.6649    3.0199   -0.8131 H   0  0  0  0  0  0  0  0  0  0  0  0
    3.0572    2.0698   -1.2229 H   0  0  0  0  0  0  0  0  0  0  0  0
   -0.7159    2.8105   -0.4291 H   0  0  0  0  0  0  0  0  0  0  0  0
   -1.3175    2.3793    1.1788 H   0  0  0  0  0  0  0  0  0  0  0  0
    0.2578    3.1036    1.0413 H   0  0  0  0  0  0  0  0  0  0  0  0
   -0.4103   -2.2895    0.6546 H   0  0  0  0  0  0  0  0  0  0  0  0
   -2.1954   -1.1434    1.4842 H   0  0  0  0  0  0  0  0  0  0  0  0
   -2.0757    0.5333    1.9041 H   0  0  0  0  0  0  0  0  0  0  0  0
   -2.6965    1.1267   -0.5363 H   0  0  0  0  0  0  0  0  0  0  0  0
   -4.3215    1.0030    1.2157 H   0  0  0  0  0  0  0  0  0  0  0  0
   -4.5960   -0.5757    0.9143 H   0  0  0  0  0  0  0  0  0  0  0  0
  1  8  1  0
  2  9  1  0
  3 10  1  0
  4 11  1  0
  5 12  1  0
  6  8  2  0
  6 13  1  0
  7  9  1  0
  7 13  1  0
  8 10  1  0
  9 14  1  0
 10 11  2  0
 11 12  1  0
 12 13  2  0
  1 15  1  0
  1 16  1  0
  1 17  1  0
  2 18  1  0
  2 19  1  0
  2 20  1  0
  3 21  1  0
  3 22  1  0
  3 23  1  0
  4 24  1  0
  4 25  1  0
  4 26  1  0
  5 27  1  0
  5 28  1  0
  5 29  1  0
  6 30  1  0
  7 31  1  0
  7 32  1  0
  9 33  1  0
 14 34  1  0
 14 35  1  0
M  END
