
     RDKit          3D

 36 36  0  0  0  0  0  0  0  0999 V2000
   -4.2465    0.8807   -0.1030 C   0  0  0  0  0  0  0  0  0  0  0  0
   -3.2304   -1.1952    0.9177 C   0  0  0  0  0  0  0  0  0  0  0  0
   -1.3893   -0.4810   -1.7872 C   0  0  0  0  0  0  0  0  0  0  0  0
    5.3210   -1.7397    0.3870 C   0  0  0  0  0  0  0  0  0  0  0  0
    1.5125    1.1660    0.7127 C   0  0  0  0  0  0  0  0  0  0  0  0
    1.9435    0.0860   -1.3966 C   0  0  0  0  0  0  0  0  0  0  0  0
    2.6345    0.5375    1.2574 C   0  0  0  0  0  0  0  0  0  0  0  0
    3.0681   -0.5423   -0.8487 C   0  0  0  0  0  0  0  0  0  0  0  0
   -0.0690    1.6162   -1.2094 C   0  0  0  0  0  0  0  0  0  0  0  0
   -3.1128    0.3223    0.7573 C   0  0  0  0  0  0  0  0  0  0  0  0
   -1.4199    0.8610   -1.0521 C   0  0  0  0  0  0  0  0  0  0  0  0
    1.1519    0.9424   -0.6211 C   0  0  0  0  0  0  0  0  0  0  0  0
    3.4179   -0.3197    0.4827 C   0  0  0  0  0  0  0  0  0  0  0  0
   -1.7635    0.7431    0.3704 N   0  0  0  0  0  0  0  0  0  0  0  0
    4.4851   -0.8691    1.1383 O   0  0  0  0  0  0  0  0  0  0  0  0
   -4.2486    0.4549   -1.1112 H   0  0  0  0  0  0  0  0  0  0  0  0
   -4.1754    1.9706   -0.1866 H   0  0  0  0  0  0  0  0  0  0  0  0
   -5.2172    0.6514    0.3509 H   0  0  0  0  0  0  0  0  0  0  0  0
   -3.1806   -1.7236   -0.0373 H   0  0  0  0  0  0  0  0  0  0  0  0
   -2.4372   -1.5859    1.5648 H   0  0  0  0  0  0  0  0  0  0  0  0
   -4.1872   -1.4542    1.3850 H   0  0  0  0  0  0  0  0  0  0  0  0
   -0.9659   -0.3651   -2.7910 H   0  0  0  0  0  0  0  0  0  0  0  0
   -2.3970   -0.8847   -1.9183 H   0  0  0  0  0  0  0  0  0  0  0  0
   -0.7921   -1.2270   -1.2524 H   0  0  0  0  0  0  0  0  0  0  0  0
    4.7674   -2.6202    0.0443 H   0  0  0  0  0  0  0  0  0  0  0  0
    6.1216   -2.0867    1.0474 H   0  0  0  0  0  0  0  0  0  0  0  0
    5.7870   -1.2132   -0.4525 H   0  0  0  0  0  0  0  0  0  0  0  0
    0.9195    1.8313    1.3373 H   0  0  0  0  0  0  0  0  0  0  0  0
    1.6910   -0.1003   -2.4381 H   0  0  0  0  0  0  0  0  0  0  0  0
    2.9012    0.7199    2.2955 H   0  0  0  0  0  0  0  0  0  0  0  0
    3.6473   -1.1975   -1.4902 H   0  0  0  0  0  0  0  0  0  0  0  0
    0.1135    1.8021   -2.2768 H   0  0  0  0  0  0  0  0  0  0  0  0
   -0.1632    2.6167   -0.7640 H   0  0  0  0  0  0  0  0  0  0  0  0
   -3.2594    0.7397    1.7621 H   0  0  0  0  0  0  0  0  0  0  0  0
   -2.1594    1.5009   -1.5484 H   0  0  0  0  0  0  0  0  0  0  0  0
   -1.0684    0.1627    0.8425 H   0  0  0  0  0  0  0  0  0  0  0  0
  1 10  1  0
  2 10  1  0
  3 11  1  0
  4 15  1  0
  5  7  2  0
  5 12  1  0
  6  8  1  0
  6 12  2  0
  7 13  1  0
  8 13  2  0
  9 11  1  0
  9 12  1  0
 10 14  1  0
 11 14  1  0
 13 15  1  0
  1 16  1  0
  1 17  1  0
  1 18  1  0
  2 19  1  0
  2 20  1  0
  2 21  1  0
  3 22  1  0
  3 23  1  0
  3 24  1  0
  4 25  1  0
  4 26  1  0
  4 27  1  0
  5 28  1  0
  6 29  1  0
  7 30  1  0
  8 31  1  0
  9 32  1  0
  9 33  1  0
 10 34  1  0
 11 35  1  0
 14 36  1  0
M  END
