
     RDKit          3D

 36 36  0  0  0  0  0  0  0  0999 V2000
    4.6619   -1.0361   -0.9061 C   0  0  0  0  0  0  0  0  0  0  0  0
   -0.0665   -1.4752   -0.3510 C   0  0  0  0  0  0  0  0  0  0  0  0
    4.4092    0.4158   -0.5308 C   0  0  0  0  0  0  0  0  0  0  0  0
    3.7179    0.5861    0.8261 C   0  0  0  0  0  0  0  0  0  0  0  0
   -3.0053    1.0006    0.6580 C   0  0  0  0  0  0  0  0  0  0  0  0
   -3.1483   -0.0126   -1.5318 C   0  0  0  0  0  0  0  0  0  0  0  0
   -4.3635    0.7515    0.8598 C   0  0  0  0  0  0  0  0  0  0  0  0
   -4.5078   -0.2621   -1.3298 C   0  0  0  0  0  0  0  0  0  0  0  0
    2.3316   -0.0605    0.9413 C   0  0  0  0  0  0  0  0  0  0  0  0
   -0.9107    0.8834   -0.7579 C   0  0  0  0  0  0  0  0  0  0  0  0
    0.0275   -0.0102    0.0935 C   0  0  0  0  0  0  0  0  0  0  0  0
   -2.3836    0.6184   -0.5396 C   0  0  0  0  0  0  0  0  0  0  0  0
   -5.1035    0.1225   -0.1334 C   0  0  0  0  0  0  0  0  0  0  0  0
    1.4088    0.4938   -0.0514 N   0  0  0  0  0  0  0  0  0  0  0  0
   -6.4270   -0.1017    0.1058 O   0  0  0  0  0  0  0  0  0  0  0  0
    5.2480   -1.0885   -1.8293 H   0  0  0  0  0  0  0  0  0  0  0  0
    5.2209   -1.5538   -0.1203 H   0  0  0  0  0  0  0  0  0  0  0  0
    3.7254   -1.5746   -1.0784 H   0  0  0  0  0  0  0  0  0  0  0  0
   -1.0918   -1.8496   -0.2683 H   0  0  0  0  0  0  0  0  0  0  0  0
    0.2529   -1.5964   -1.3922 H   0  0  0  0  0  0  0  0  0  0  0  0
    0.5522   -2.1293    0.2708 H   0  0  0  0  0  0  0  0  0  0  0  0
    5.3725    0.9388   -0.4938 H   0  0  0  0  0  0  0  0  0  0  0  0
    3.8238    0.8996   -1.3209 H   0  0  0  0  0  0  0  0  0  0  0  0
    4.3622    0.1669    1.6092 H   0  0  0  0  0  0  0  0  0  0  0  0
    3.6339    1.6594    1.0405 H   0  0  0  0  0  0  0  0  0  0  0  0
   -2.4369    1.4976    1.4406 H   0  0  0  0  0  0  0  0  0  0  0  0
   -2.6867   -0.3173   -2.4687 H   0  0  0  0  0  0  0  0  0  0  0  0
   -4.8427    1.0484    1.7882 H   0  0  0  0  0  0  0  0  0  0  0  0
   -5.0784   -0.7533   -2.1112 H   0  0  0  0  0  0  0  0  0  0  0  0
    1.9503    0.1296    1.9519 H   0  0  0  0  0  0  0  0  0  0  0  0
    2.4318   -1.1437    0.8277 H   0  0  0  0  0  0  0  0  0  0  0  0
   -0.6659    0.7749   -1.8232 H   0  0  0  0  0  0  0  0  0  0  0  0
   -0.7351    1.9423   -0.5219 H   0  0  0  0  0  0  0  0  0  0  0  0
   -0.2756    0.0654    1.1455 H   0  0  0  0  0  0  0  0  0  0  0  0
    1.4084    1.5100    0.0415 H   0  0  0  0  0  0  0  0  0  0  0  0
   -6.8100   -0.5401   -0.6714 H   0  0  0  0  0  0  0  0  0  0  0  0
  1  3  1  0
  2 11  1  0
  3  4  1  0
  4  9  1  0
  5  7  2  0
  5 12  1  0
  6  8  1  0
  6 12  2  0
  7 13  1  0
  8 13  2  0
  9 14  1  0
 10 11  1  0
 10 12  1  0
 11 14  1  0
 13 15  1  0
  1 16  1  0
  1 17  1  0
  1 18  1  0
  2 19  1  0
  2 20  1  0
  2 21  1  0
  3 22  1  0
  3 23  1  0
  4 24  1  0
  4 25  1  0
  5 26  1  0
  6 27  1  0
  7 28  1  0
  8 29  1  0
  9 30  1  0
  9 31  1  0
 10 32  1  0
 10 33  1  0
 11 34  1  0
 14 35  1  0
 15 36  1  0
M  END
