
     RDKit          3D

 36 36  0  0  0  0  0  0  0  0999 V2000
   -3.9443    1.7161   -1.4894 C   0  0  0  0  0  0  0  0  0  0  0  0
   -3.4795   -2.0457    0.4681 C   0  0  0  0  0  0  0  0  0  0  0  0
    5.4783    1.3503    1.0554 C   0  0  0  0  0  0  0  0  0  0  0  0
   -2.7270    1.4842   -0.5989 C   0  0  0  0  0  0  0  0  0  0  0  0
   -3.3746   -0.5283    0.5951 C   0  0  0  0  0  0  0  0  0  0  0  0
    3.1852   -1.9017   -0.3807 C   0  0  0  0  0  0  0  0  0  0  0  0
    1.8783   -1.6543   -0.8003 C   0  0  0  0  0  0  0  0  0  0  0  0
    3.9801   -0.8599    0.1051 C   0  0  0  0  0  0  0  0  0  0  0  0
   -0.0678   -0.0843   -1.1744 C   0  0  0  0  0  0  0  0  0  0  0  0
   -1.0432   -0.1547    0.0143 C   0  0  0  0  0  0  0  0  0  0  0  0
    2.1583    0.6781   -0.2483 C   0  0  0  0  0  0  0  0  0  0  0  0
    1.3535   -0.3590   -0.7421 C   0  0  0  0  0  0  0  0  0  0  0  0
    3.4693    0.4361    0.1741 C   0  0  0  0  0  0  0  0  0  0  0  0
   -2.4507    0.0470   -0.4024 N   0  0  0  0  0  0  0  0  0  0  0  0
    4.1351    1.5409    0.6302 O   0  0  0  0  0  0  0  0  0  0  0  0
   -4.8729    1.3740   -1.0242 H   0  0  0  0  0  0  0  0  0  0  0  0
   -4.0559    2.7862   -1.6943 H   0  0  0  0  0  0  0  0  0  0  0  0
   -3.8307    1.2028   -2.4503 H   0  0  0  0  0  0  0  0  0  0  0  0
   -4.2455   -2.4233    1.1537 H   0  0  0  0  0  0  0  0  0  0  0  0
   -2.5421   -2.5516    0.7149 H   0  0  0  0  0  0  0  0  0  0  0  0
   -3.7695   -2.3347   -0.5477 H   0  0  0  0  0  0  0  0  0  0  0  0
    5.5284    0.6696    1.9117 H   0  0  0  0  0  0  0  0  0  0  0  0
    5.8673    2.3206    1.3790 H   0  0  0  0  0  0  0  0  0  0  0  0
    6.1076    0.9977    0.2315 H   0  0  0  0  0  0  0  0  0  0  0  0
   -2.8554    1.9981    0.3622 H   0  0  0  0  0  0  0  0  0  0  0  0
   -1.8852    1.9743   -1.1001 H   0  0  0  0  0  0  0  0  0  0  0  0
   -3.0798   -0.2510    1.6151 H   0  0  0  0  0  0  0  0  0  0  0  0
   -4.3890   -0.1409    0.4509 H   0  0  0  0  0  0  0  0  0  0  0  0
    3.5869   -2.9106   -0.4313 H   0  0  0  0  0  0  0  0  0  0  0  0
    1.2721   -2.4773   -1.1727 H   0  0  0  0  0  0  0  0  0  0  0  0
    4.9904   -1.0950    0.4216 H   0  0  0  0  0  0  0  0  0  0  0  0
   -0.3611   -0.8131   -1.9414 H   0  0  0  0  0  0  0  0  0  0  0  0
   -0.0992    0.8953   -1.6647 H   0  0  0  0  0  0  0  0  0  0  0  0
   -0.7634    0.5677    0.7933 H   0  0  0  0  0  0  0  0  0  0  0  0
   -0.9193   -1.1447    0.4689 H   0  0  0  0  0  0  0  0  0  0  0  0
    1.7654    1.6911   -0.1902 H   0  0  0  0  0  0  0  0  0  0  0  0
  1  4  1  0
  2  5  1  0
  3 15  1  0
  4 14  1  0
  5 14  1  0
  6  7  2  0
  6  8  1  0
  7 12  1  0
  8 13  2  0
  9 10  1  0
  9 12  1  0
 10 14  1  0
 11 12  2  0
 11 13  1  0
 13 15  1  0
  1 16  1  0
  1 17  1  0
  1 18  1  0
  2 19  1  0
  2 20  1  0
  2 21  1  0
  3 22  1  0
  3 23  1  0
  3 24  1  0
  4 25  1  0
  4 26  1  0
  5 27  1  0
  5 28  1  0
  6 29  1  0
  7 30  1  0
  8 31  1  0
  9 32  1  0
  9 33  1  0
 10 34  1  0
 10 35  1  0
 11 36  1  0
M  END
