
     RDKit          3D

 37 37  0  0  0  0  0  0  0  0999 V2000
    3.1793    1.4441   -0.6533 C   0  0  0  0  0  0  0  0  0  0  0  0
    3.4173   -1.4786   -0.2605 C   0  0  0  0  0  0  0  0  0  0  0  0
    2.8573   -0.4797    1.8494 C   0  0  0  0  0  0  0  0  0  0  0  0
   -5.0429   -1.0672    0.6052 C   0  0  0  0  0  0  0  0  0  0  0  0
   -1.9767    2.8893    0.0063 C   0  0  0  0  0  0  0  0  0  0  0  0
   -0.5559   -1.5935   -1.0118 C   0  0  0  0  0  0  0  0  0  0  0  0
   -1.7954   -2.1041   -0.6309 C   0  0  0  0  0  0  0  0  0  0  0  0
    1.0499    0.3094   -1.3840 C   0  0  0  0  0  0  0  0  0  0  0  0
   -2.5732    0.1259   -0.1450 C   0  0  0  0  0  0  0  0  0  0  0  0
    2.0086    0.5629   -0.1895 C   0  0  0  0  0  0  0  0  0  0  0  0
   -0.3118   -0.2139   -0.9698 C   0  0  0  0  0  0  0  0  0  0  0  0
   -2.8095   -1.2508   -0.1987 C   0  0  0  0  0  0  0  0  0  0  0  0
   -1.3286    0.6509   -0.5232 C   0  0  0  0  0  0  0  0  0  0  0  0
    2.4217   -0.7000    0.4710 N   0  0  0  0  0  0  0  0  0  0  0  0
   -3.9751   -1.8829    0.1419 O   0  0  0  0  0  0  0  0  0  0  0  0
   -1.0047    1.9845   -0.4993 O   0  0  0  0  0  0  0  0  0  0  0  0
    2.8068    2.4108   -1.0109 H   0  0  0  0  0  0  0  0  0  0  0  0
    3.7364    0.9840   -1.4761 H   0  0  0  0  0  0  0  0  0  0  0  0
    3.8774    1.6514    0.1637 H   0  0  0  0  0  0  0  0  0  0  0  0
    3.0959   -1.6857   -1.2855 H   0  0  0  0  0  0  0  0  0  0  0  0
    3.5556   -2.4558    0.2168 H   0  0  0  0  0  0  0  0  0  0  0  0
    4.3948   -0.9853   -0.2961 H   0  0  0  0  0  0  0  0  0  0  0  0
    3.0403   -1.4370    2.3507 H   0  0  0  0  0  0  0  0  0  0  0  0
    2.0766    0.0257    2.4286 H   0  0  0  0  0  0  0  0  0  0  0  0
    3.7744    0.1158    1.9098 H   0  0  0  0  0  0  0  0  0  0  0  0
   -4.7677   -0.5409    1.5252 H   0  0  0  0  0  0  0  0  0  0  0  0
   -5.3692   -0.3662   -0.1701 H   0  0  0  0  0  0  0  0  0  0  0  0
   -5.8879   -1.7226    0.8375 H   0  0  0  0  0  0  0  0  0  0  0  0
   -2.8705    2.9012   -0.6259 H   0  0  0  0  0  0  0  0  0  0  0  0
   -1.5416    3.8932   -0.0161 H   0  0  0  0  0  0  0  0  0  0  0  0
   -2.2284    2.6600    1.0470 H   0  0  0  0  0  0  0  0  0  0  0  0
    0.2265   -2.2782   -1.3304 H   0  0  0  0  0  0  0  0  0  0  0  0
   -1.9691   -3.1765   -0.6665 H   0  0  0  0  0  0  0  0  0  0  0  0
    1.5015   -0.3749   -2.1131 H   0  0  0  0  0  0  0  0  0  0  0  0
    0.9027    1.2416   -1.9461 H   0  0  0  0  0  0  0  0  0  0  0  0
   -3.3582    0.7894    0.1906 H   0  0  0  0  0  0  0  0  0  0  0  0
    1.4435    1.1537    0.5447 H   0  0  0  0  0  0  0  0  0  0  0  0
  1 10  1  0
  2 14  1  0
  3 14  1  0
  4 15  1  0
  5 16  1  0
  6  7  2  0
  6 11  1  0
  7 12  1  0
  8 10  1  0
  8 11  1  0
  9 12  2  0
  9 13  1  0
 10 14  1  0
 11 13  2  0
 12 15  1  0
 13 16  1  0
  1 17  1  0
  1 18  1  0
  1 19  1  0
  2 20  1  0
  2 21  1  0
  2 22  1  0
  3 23  1  0
  3 24  1  0
  3 25  1  0
  4 26  1  0
  4 27  1  0
  4 28  1  0
  5 29  1  0
  5 30  1  0
  5 31  1  0
  6 32  1  0
  7 33  1  0
  8 34  1  0
  8 35  1  0
  9 36  1  0
 10 37  1  0
M  END
