
     RDKit          3D

 37 37  0  0  0  0  0  0  0  0999 V2000
   -3.2695    3.9616    0.5812 C   0  0  0  0  0  0  0  0  0  0  0  0
   -4.2046   -2.0279   -1.1349 C   0  0  0  0  0  0  0  0  0  0  0  0
    5.0242   -0.4593   -1.5481 C   0  0  0  0  0  0  0  0  0  0  0  0
   -1.9393    3.2554    0.7737 C   0  0  0  0  0  0  0  0  0  0  0  0
   -2.7482   -1.9341   -0.7165 C   0  0  0  0  0  0  0  0  0  0  0  0
    1.2977    0.5465    0.9986 C   0  0  0  0  0  0  0  0  0  0  0  0
    0.2436    1.4618    0.9430 C   0  0  0  0  0  0  0  0  0  0  0  0
    2.2498   -1.7722    0.6749 C   0  0  0  0  0  0  0  0  0  0  0  0
    3.2138   -1.6750   -0.5197 C   0  0  0  0  0  0  0  0  0  0  0  0
   -0.1620   -1.1882    0.1744 C   0  0  0  0  0  0  0  0  0  0  0  0
    1.1067   -0.7848    0.6192 C   0  0  0  0  0  0  0  0  0  0  0  0
   -1.0213    1.0595    0.5049 C   0  0  0  0  0  0  0  0  0  0  0  0
   -1.2266   -0.2791    0.1162 C   0  0  0  0  0  0  0  0  0  0  0  0
    4.1436   -0.5457   -0.3912 N   0  0  0  0  0  0  0  0  0  0  0  0
   -2.1139    1.8872    0.4192 O   0  0  0  0  0  0  0  0  0  0  0  0
   -2.4961   -0.5952   -0.3030 O   0  0  0  0  0  0  0  0  0  0  0  0
   -3.1899    5.0209    0.8413 H   0  0  0  0  0  0  0  0  0  0  0  0
   -4.0439    3.5016    1.2039 H   0  0  0  0  0  0  0  0  0  0  0  0
   -3.6041    3.8767   -0.4581 H   0  0  0  0  0  0  0  0  0  0  0  0
   -4.4168   -1.3300   -1.9517 H   0  0  0  0  0  0  0  0  0  0  0  0
   -4.4515   -3.0415   -1.4630 H   0  0  0  0  0  0  0  0  0  0  0  0
   -4.8630   -1.7550   -0.3034 H   0  0  0  0  0  0  0  0  0  0  0  0
    5.6341   -1.3619   -1.6571 H   0  0  0  0  0  0  0  0  0  0  0  0
    5.7011    0.3921   -1.4277 H   0  0  0  0  0  0  0  0  0  0  0  0
    4.4539   -0.2982   -2.4686 H   0  0  0  0  0  0  0  0  0  0  0  0
   -1.6391    3.3413    1.8243 H   0  0  0  0  0  0  0  0  0  0  0  0
   -1.1895    3.7249    0.1266 H   0  0  0  0  0  0  0  0  0  0  0  0
   -2.5700   -2.6289    0.1122 H   0  0  0  0  0  0  0  0  0  0  0  0
   -2.1142   -2.1949   -1.5717 H   0  0  0  0  0  0  0  0  0  0  0  0
    2.2771    0.8844    1.3314 H   0  0  0  0  0  0  0  0  0  0  0  0
    0.4474    2.4827    1.2461 H   0  0  0  0  0  0  0  0  0  0  0  0
    2.7903   -1.6538    1.6232 H   0  0  0  0  0  0  0  0  0  0  0  0
    1.8366   -2.7890    0.7037 H   0  0  0  0  0  0  0  0  0  0  0  0
    2.6414   -1.5938   -1.4519 H   0  0  0  0  0  0  0  0  0  0  0  0
    3.7945   -2.6047   -0.5646 H   0  0  0  0  0  0  0  0  0  0  0  0
   -0.2964   -2.2227   -0.1230 H   0  0  0  0  0  0  0  0  0  0  0  0
    4.7042   -0.6607    0.4523 H   0  0  0  0  0  0  0  0  0  0  0  0
  1  4  1  0
  2  5  1  0
  3 14  1  0
  4 15  1  0
  5 16  1  0
  6  7  2  0
  6 11  1  0
  7 12  1  0
  8  9  1  0
  8 11  1  0
  9 14  1  0
 10 11  2  0
 10 13  1  0
 12 13  2  0
 12 15  1  0
 13 16  1  0
  1 17  1  0
  1 18  1  0
  1 19  1  0
  2 20  1  0
  2 21  1  0
  2 22  1  0
  3 23  1  0
  3 24  1  0
  3 25  1  0
  4 26  1  0
  4 27  1  0
  5 28  1  0
  5 29  1  0
  6 30  1  0
  7 31  1  0
  8 32  1  0
  8 33  1  0
  9 34  1  0
  9 35  1  0
 10 36  1  0
 14 37  1  0
M  END
