
     RDKit          3D

 37 37  0  0  0  0  0  0  0  0999 V2000
    5.1088   -0.9828   -0.5394 C   0  0  0  0  0  0  0  0  0  0  0  0
   -3.3502    2.8460    0.8249 C   0  0  0  0  0  0  0  0  0  0  0  0
    1.9301    2.6304   -0.9055 C   0  0  0  0  0  0  0  0  0  0  0  0
    3.6259   -1.1433   -0.2562 C   0  0  0  0  0  0  0  0  0  0  0  0
   -3.1880    1.7909   -0.2549 C   0  0  0  0  0  0  0  0  0  0  0  0
   -1.4017   -1.8633    0.7277 C   0  0  0  0  0  0  0  0  0  0  0  0
   -2.0736   -2.5391   -0.4737 C   0  0  0  0  0  0  0  0  0  0  0  0
   -0.3095    1.6411   -0.3202 C   0  0  0  0  0  0  0  0  0  0  0  0
    0.8306   -0.8581    0.1328 C   0  0  0  0  0  0  0  0  0  0  0  0
    1.0752    1.4643   -0.4888 C   0  0  0  0  0  0  0  0  0  0  0  0
   -0.5547   -0.6801    0.3089 C   0  0  0  0  0  0  0  0  0  0  0  0
    1.6477    0.2027   -0.2642 C   0  0  0  0  0  0  0  0  0  0  0  0
   -1.1298    0.5782    0.0640 C   0  0  0  0  0  0  0  0  0  0  0  0
   -2.8828   -3.6916   -0.0715 N   0  0  0  0  0  0  0  0  0  0  0  0
    3.0016    0.1226   -0.4577 O   0  0  0  0  0  0  0  0  0  0  0  0
   -2.4828    0.6601    0.2540 O   0  0  0  0  0  0  0  0  0  0  0  0
    5.2700   -0.6367   -1.5658 H   0  0  0  0  0  0  0  0  0  0  0  0
    5.6375   -1.9297   -0.3987 H   0  0  0  0  0  0  0  0  0  0  0  0
    5.5486   -0.2301    0.1234 H   0  0  0  0  0  0  0  0  0  0  0  0
   -3.9441    3.6876    0.4573 H   0  0  0  0  0  0  0  0  0  0  0  0
   -3.8485    2.4212    1.7028 H   0  0  0  0  0  0  0  0  0  0  0  0
   -2.3813    3.2240    1.1644 H   0  0  0  0  0  0  0  0  0  0  0  0
    2.4282    2.4145   -1.8564 H   0  0  0  0  0  0  0  0  0  0  0  0
    2.6831    2.8411   -0.1391 H   0  0  0  0  0  0  0  0  0  0  0  0
    1.3342    3.5387   -1.0431 H   0  0  0  0  0  0  0  0  0  0  0  0
    3.2095   -1.8875   -0.9448 H   0  0  0  0  0  0  0  0  0  0  0  0
    3.4941   -1.4718    0.7811 H   0  0  0  0  0  0  0  0  0  0  0  0
   -2.7421    2.1941   -1.1709 H   0  0  0  0  0  0  0  0  0  0  0  0
   -4.1837    1.4320   -0.5397 H   0  0  0  0  0  0  0  0  0  0  0  0
   -2.1530   -1.5388    1.4590 H   0  0  0  0  0  0  0  0  0  0  0  0
   -0.7738   -2.5901    1.2601 H   0  0  0  0  0  0  0  0  0  0  0  0
   -2.7167   -1.8310   -1.0079 H   0  0  0  0  0  0  0  0  0  0  0  0
   -1.3151   -2.8782   -1.1886 H   0  0  0  0  0  0  0  0  0  0  0  0
   -0.7205    2.6313   -0.4860 H   0  0  0  0  0  0  0  0  0  0  0  0
    1.2464   -1.8441    0.3144 H   0  0  0  0  0  0  0  0  0  0  0  0
   -3.6121   -3.3786    0.5691 H   0  0  0  0  0  0  0  0  0  0  0  0
   -2.3072   -4.3461    0.4562 H   0  0  0  0  0  0  0  0  0  0  0  0
  1  4  1  0
  2  5  1  0
  3 10  1  0
  4 15  1  0
  5 16  1  0
  6  7  1  0
  6 11  1  0
  7 14  1  0
  8 10  2  0
  8 13  1  0
  9 11  1  0
  9 12  2  0
 10 12  1  0
 11 13  2  0
 12 15  1  0
 13 16  1  0
  1 17  1  0
  1 18  1  0
  1 19  1  0
  2 20  1  0
  2 21  1  0
  2 22  1  0
  3 23  1  0
  3 24  1  0
  3 25  1  0
  4 26  1  0
  4 27  1  0
  5 28  1  0
  5 29  1  0
  6 30  1  0
  6 31  1  0
  7 32  1  0
  7 33  1  0
  8 34  1  0
  9 35  1  0
 14 36  1  0
 14 37  1  0
M  END
