
     RDKit          3D

 37 37  0  0  0  0  0  0  0  0999 V2000
   -3.7567   -0.0213   -1.2831 C   0  0  0  0  0  0  0  0  0  0  0  0
    3.0643   -0.5759   -1.5145 C   0  0  0  0  0  0  0  0  0  0  0  0
   -1.2091   -3.6125    0.3494 C   0  0  0  0  0  0  0  0  0  0  0  0
   -1.2717    3.6020    0.3607 C   0  0  0  0  0  0  0  0  0  0  0  0
   -3.3749   -0.0234    0.1899 C   0  0  0  0  0  0  0  0  0  0  0  0
    2.4301    0.0283    0.8833 C   0  0  0  0  0  0  0  0  0  0  0  0
    0.2360   -1.2014    0.6173 C   0  0  0  0  0  0  0  0  0  0  0  0
    0.2138    1.2156    0.6264 C   0  0  0  0  0  0  0  0  0  0  0  0
    3.2016    0.4476   -0.3868 C   0  0  0  0  0  0  0  0  0  0  0  0
    0.9283    0.0130    0.7086 C   0  0  0  0  0  0  0  0  0  0  0  0
   -1.8700   -0.0106    0.3819 C   0  0  0  0  0  0  0  0  0  0  0  0
   -1.1522   -1.2237    0.4492 C   0  0  0  0  0  0  0  0  0  0  0  0
   -1.1743    1.2146    0.4579 C   0  0  0  0  0  0  0  0  0  0  0  0
    4.6309    0.6133   -0.0883 N   0  0  0  0  0  0  0  0  0  0  0  0
   -1.8981   -2.3698    0.3373 O   0  0  0  0  0  0  0  0  0  0  0  0
   -1.9404    2.3482    0.3557 O   0  0  0  0  0  0  0  0  0  0  0  0
   -3.3576   -0.9008   -1.7994 H   0  0  0  0  0  0  0  0  0  0  0  0
   -4.8459   -0.0307   -1.3910 H   0  0  0  0  0  0  0  0  0  0  0  0
   -3.3736    0.8693   -1.7926 H   0  0  0  0  0  0  0  0  0  0  0  0
    2.0251   -0.6591   -1.8486 H   0  0  0  0  0  0  0  0  0  0  0  0
    3.6599   -0.2803   -2.3858 H   0  0  0  0  0  0  0  0  0  0  0  0
    3.3995   -1.5703   -1.1987 H   0  0  0  0  0  0  0  0  0  0  0  0
   -1.9516   -4.4070    0.2271 H   0  0  0  0  0  0  0  0  0  0  0  0
   -0.5061   -3.6836   -0.4871 H   0  0  0  0  0  0  0  0  0  0  0  0
   -0.7048   -3.7744    1.3077 H   0  0  0  0  0  0  0  0  0  0  0  0
   -0.5727    3.6817   -0.4784 H   0  0  0  0  0  0  0  0  0  0  0  0
   -2.0275    4.3838    0.2383 H   0  0  0  0  0  0  0  0  0  0  0  0
   -0.7669    3.7754    1.3167 H   0  0  0  0  0  0  0  0  0  0  0  0
   -3.8149   -0.8971    0.6855 H   0  0  0  0  0  0  0  0  0  0  0  0
   -3.8305    0.8384    0.6920 H   0  0  0  0  0  0  0  0  0  0  0  0
    2.7758   -0.9565    1.2253 H   0  0  0  0  0  0  0  0  0  0  0  0
    2.6609    0.7210    1.7044 H   0  0  0  0  0  0  0  0  0  0  0  0
    0.8061   -2.1229    0.6763 H   0  0  0  0  0  0  0  0  0  0  0  0
    0.7680    2.1462    0.6981 H   0  0  0  0  0  0  0  0  0  0  0  0
    2.8261    1.4120   -0.7483 H   0  0  0  0  0  0  0  0  0  0  0  0
    4.7503    1.2798    0.6736 H   0  0  0  0  0  0  0  0  0  0  0  0
    5.0224   -0.2689    0.2401 H   0  0  0  0  0  0  0  0  0  0  0  0
  1  5  1  0
  2  9  1  0
  3 15  1  0
  4 16  1  0
  5 11  1  0
  6  9  1  0
  6 10  1  0
  7 10  2  0
  7 12  1  0
  8 10  1  0
  8 13  2  0
  9 14  1  0
 11 12  2  0
 11 13  1  0
 12 15  1  0
 13 16  1  0
  1 17  1  0
  1 18  1  0
  1 19  1  0
  2 20  1  0
  2 21  1  0
  2 22  1  0
  3 23  1  0
  3 24  1  0
  3 25  1  0
  4 26  1  0
  4 27  1  0
  4 28  1  0
  5 29  1  0
  5 30  1  0
  6 31  1  0
  6 32  1  0
  7 33  1  0
  8 34  1  0
  9 35  1  0
 14 36  1  0
 14 37  1  0
M  END
