
     RDKit          3D

 38 38  0  0  0  0  0  0  0  0999 V2000
    5.1762   -2.4904   -0.4409 C   0  0  0  0  0  0  0  0  0  0  0  0
   -2.3933    3.9514   -1.2222 C   0  0  0  0  0  0  0  0  0  0  0  0
   -3.6773   -1.8463    2.9253 C   0  0  0  0  0  0  0  0  0  0  0  0
    4.3405   -1.2218   -0.4727 C   0  0  0  0  0  0  0  0  0  0  0  0
   -1.0135    3.3437   -1.0895 C   0  0  0  0  0  0  0  0  0  0  0  0
    2.3063    0.7676   -0.6017 C   0  0  0  0  0  0  0  0  0  0  0  0
    1.2565    1.6932   -0.5609 C   0  0  0  0  0  0  0  0  0  0  0  0
    0.7194   -1.0196   -0.3511 C   0  0  0  0  0  0  0  0  0  0  0  0
   -2.0683   -0.9016    1.3808 C   0  0  0  0  0  0  0  0  0  0  0  0
    2.0409   -0.5939   -0.4961 C   0  0  0  0  0  0  0  0  0  0  0  0
   -0.3503   -0.1025   -0.3076 C   0  0  0  0  0  0  0  0  0  0  0  0
   -1.7719   -0.6018   -0.1104 C   0  0  0  0  0  0  0  0  0  0  0  0
   -0.0689    1.2674   -0.4237 C   0  0  0  0  0  0  0  0  0  0  0  0
   -3.4671   -1.3373    1.5728 N   0  0  0  0  0  0  0  0  0  0  0  0
   -1.9802   -1.7987   -0.8844 O   0  0  0  0  0  0  0  0  0  0  0  0
    2.9672   -1.5990   -0.5190 O   0  0  0  0  0  0  0  0  0  0  0  0
   -1.1363    2.1206   -0.3533 O   0  0  0  0  0  0  0  0  0  0  0  0
    4.8762   -3.1319    0.3944 H   0  0  0  0  0  0  0  0  0  0  0  0
    5.0291   -3.0693   -1.3574 H   0  0  0  0  0  0  0  0  0  0  0  0
    6.2405   -2.2525   -0.3411 H   0  0  0  0  0  0  0  0  0  0  0  0
   -2.3576    4.8739   -1.8203 H   0  0  0  0  0  0  0  0  0  0  0  0
   -3.0808    3.2387   -1.6930 H   0  0  0  0  0  0  0  0  0  0  0  0
   -2.8114    4.1911   -0.2357 H   0  0  0  0  0  0  0  0  0  0  0  0
   -4.7196   -2.1554    3.0434 H   0  0  0  0  0  0  0  0  0  0  0  0
   -3.0463   -2.7156    3.1276 H   0  0  0  0  0  0  0  0  0  0  0  0
   -3.4723   -1.0730    3.6764 H   0  0  0  0  0  0  0  0  0  0  0  0
    4.5444   -0.6394    0.4327 H   0  0  0  0  0  0  0  0  0  0  0  0
    4.6073   -0.6419   -1.3617 H   0  0  0  0  0  0  0  0  0  0  0  0
   -0.3655    4.0481   -0.5577 H   0  0  0  0  0  0  0  0  0  0  0  0
   -0.6180    3.1430   -2.0925 H   0  0  0  0  0  0  0  0  0  0  0  0
    3.3189    1.1460   -0.7134 H   0  0  0  0  0  0  0  0  0  0  0  0
    1.5061    2.7471   -0.6224 H   0  0  0  0  0  0  0  0  0  0  0  0
    0.5215   -2.0858   -0.2553 H   0  0  0  0  0  0  0  0  0  0  0  0
   -1.8744   -0.0070    1.9858 H   0  0  0  0  0  0  0  0  0  0  0  0
   -1.3992   -1.6966    1.7263 H   0  0  0  0  0  0  0  0  0  0  0  0
   -2.4939    0.1282   -0.4928 H   0  0  0  0  0  0  0  0  0  0  0  0
   -3.6520   -2.0775    0.8878 H   0  0  0  0  0  0  0  0  0  0  0  0
   -1.6333   -1.6013   -1.7764 H   0  0  0  0  0  0  0  0  0  0  0  0
  1  4  1  0
  2  5  1  0
  3 14  1  0
  4 16  1  0
  5 17  1  0
  6  7  2  0
  6 10  1  0
  7 13  1  0
  8 10  2  0
  8 11  1  0
  9 12  1  0
  9 14  1  0
 10 16  1  0
 11 12  1  0
 11 13  2  0
 12 15  1  0
 13 17  1  0
  1 18  1  0
  1 19  1  0
  1 20  1  0
  2 21  1  0
  2 22  1  0
  2 23  1  0
  3 24  1  0
  3 25  1  0
  3 26  1  0
  4 27  1  0
  4 28  1  0
  5 29  1  0
  5 30  1  0
  6 31  1  0
  7 32  1  0
  8 33  1  0
  9 34  1  0
  9 35  1  0
 12 36  1  0
 14 37  1  0
 15 38  1  0
M  END
