
     RDKit          3D

 38 39  0  0  0  0  0  0  0  0999 V2000
   -2.1641   -2.6150   -0.2659 C   0  0  0  0  0  0  0  0  0  0  0  0
   -2.9993    1.9633   -0.8808 C   0  0  0  0  0  0  0  0  0  0  0  0
   -3.1383    1.2619    1.5158 C   0  0  0  0  0  0  0  0  0  0  0  0
   -0.8707   -1.9551   -0.7260 C   0  0  0  0  0  0  0  0  0  0  0  0
    2.4619   -1.0286   -1.2050 C   0  0  0  0  0  0  0  0  0  0  0  0
    3.6440   -1.1348   -0.4652 C   0  0  0  0  0  0  0  0  0  0  0  0
    0.2540    0.1005   -1.7561 C   0  0  0  0  0  0  0  0  0  0  0  0
    1.8001    0.9397    0.0653 C   0  0  0  0  0  0  0  0  0  0  0  0
    4.6441    1.0117    2.1316 C   0  0  0  0  0  0  0  0  0  0  0  0
   -2.7882    0.8058    0.0972 C   0  0  0  0  0  0  0  0  0  0  0  0
    1.5304    0.0040   -0.9468 C   0  0  0  0  0  0  0  0  0  0  0  0
   -1.0309   -0.4625   -1.0913 C   0  0  0  0  0  0  0  0  0  0  0  0
    3.8695   -0.1993    0.5201 C   0  0  0  0  0  0  0  0  0  0  0  0
    2.9731    0.8101    0.7783 C   0  0  0  0  0  0  0  0  0  0  0  0
   -1.3933    0.3573    0.0783 N   0  0  0  0  0  0  0  0  0  0  0  0
    4.9581   -0.1485    1.3336 O   0  0  0  0  0  0  0  0  0  0  0  0
    3.3846    1.6238    1.7876 O   0  0  0  0  0  0  0  0  0  0  0  0
   -2.0027   -3.6865   -0.1097 H   0  0  0  0  0  0  0  0  0  0  0  0
   -2.5161   -2.1928    0.6800 H   0  0  0  0  0  0  0  0  0  0  0  0
   -2.9530   -2.4983   -1.0154 H   0  0  0  0  0  0  0  0  0  0  0  0
   -2.8089    1.6613   -1.9156 H   0  0  0  0  0  0  0  0  0  0  0  0
   -2.3390    2.8071   -0.6499 H   0  0  0  0  0  0  0  0  0  0  0  0
   -4.0323    2.3248   -0.8314 H   0  0  0  0  0  0  0  0  0  0  0  0
   -4.1779    1.6035    1.5665 H   0  0  0  0  0  0  0  0  0  0  0  0
   -2.4967    2.0877    1.8440 H   0  0  0  0  0  0  0  0  0  0  0  0
   -3.0260    0.4400    2.2319 H   0  0  0  0  0  0  0  0  0  0  0  0
   -0.5045   -2.4997   -1.6053 H   0  0  0  0  0  0  0  0  0  0  0  0
   -0.1175   -2.0834    0.0608 H   0  0  0  0  0  0  0  0  0  0  0  0
    2.2642   -1.7576   -1.9883 H   0  0  0  0  0  0  0  0  0  0  0  0
    4.3600   -1.9250   -0.6591 H   0  0  0  0  0  0  0  0  0  0  0  0
    0.4051   -0.4148   -2.7145 H   0  0  0  0  0  0  0  0  0  0  0  0
    0.0941    1.1536   -2.0264 H   0  0  0  0  0  0  0  0  0  0  0  0
    1.1058    1.7436    0.2884 H   0  0  0  0  0  0  0  0  0  0  0  0
    4.6122    0.7131    3.1858 H   0  0  0  0  0  0  0  0  0  0  0  0
    5.4412    1.7527    2.0009 H   0  0  0  0  0  0  0  0  0  0  0  0
   -3.4632   -0.0180   -0.1620 H   0  0  0  0  0  0  0  0  0  0  0  0
   -1.8164   -0.3981   -1.8557 H   0  0  0  0  0  0  0  0  0  0  0  0
   -1.1635   -0.1476    0.9342 H   0  0  0  0  0  0  0  0  0  0  0  0
  1  4  1  0
  2 10  1  0
  3 10  1  0
  4 12  1  0
  5  6  2  0
  5 11  1  0
  6 13  1  0
  7 11  1  0
  7 12  1  0
  8 11  2  0
  8 14  1  0
  9 16  1  0
  9 17  1  0
 10 15  1  0
 12 15  1  0
 13 14  2  0
 13 16  1  0
 14 17  1  0
  1 18  1  0
  1 19  1  0
  1 20  1  0
  2 21  1  0
  2 22  1  0
  2 23  1  0
  3 24  1  0
  3 25  1  0
  3 26  1  0
  4 27  1  0
  4 28  1  0
  5 29  1  0
  6 30  1  0
  7 31  1  0
  7 32  1  0
  8 33  1  0
  9 34  1  0
  9 35  1  0
 10 36  1  0
 12 37  1  0
 15 38  1  0
M  END
