
     RDKit          3D

 39 39  0  0  0  0  0  0  0  0999 V2000
   -4.8439    1.0029    1.7171 C   0  0  0  0  0  0  0  0  0  0  0  0
    3.0414   -1.6390    1.1682 C   0  0  0  0  0  0  0  0  0  0  0  0
    1.5227    3.5167   -0.4108 C   0  0  0  0  0  0  0  0  0  0  0  0
   -1.9601   -2.9946   -0.8166 C   0  0  0  0  0  0  0  0  0  0  0  0
   -3.8460    0.1885    0.9088 C   0  0  0  0  0  0  0  0  0  0  0  0
    2.5466   -0.5146   -1.0695 C   0  0  0  0  0  0  0  0  0  0  0  0
    0.1060   -1.0748   -0.7520 C   0  0  0  0  0  0  0  0  0  0  0  0
   -0.5360    1.5867   -0.2637 C   0  0  0  0  0  0  0  0  0  0  0  0
    3.4549   -0.5480    0.1794 C   0  0  0  0  0  0  0  0  0  0  0  0
    1.1179   -0.0948   -0.7806 C   0  0  0  0  0  0  0  0  0  0  0  0
   -1.5399    0.6015   -0.2179 C   0  0  0  0  0  0  0  0  0  0  0  0
   -2.9164    1.0807    0.1061 C   0  0  0  0  0  0  0  0  0  0  0  0
    0.7884    1.2490   -0.5419 C   0  0  0  0  0  0  0  0  0  0  0  0
   -1.2262   -0.7404   -0.4810 C   0  0  0  0  0  0  0  0  0  0  0  0
    4.8521   -0.7929   -0.2089 N   0  0  0  0  0  0  0  0  0  0  0  0
   -3.2483    2.2073   -0.2635 O   0  0  0  0  0  0  0  0  0  0  0  0
    1.8262    2.1400   -0.6035 O   0  0  0  0  0  0  0  0  0  0  0  0
   -2.2530   -1.6439   -0.4796 O   0  0  0  0  0  0  0  0  0  0  0  0
   -5.4938    1.5936    1.0631 H   0  0  0  0  0  0  0  0  0  0  0  0
   -5.4768    0.3421    2.3175 H   0  0  0  0  0  0  0  0  0  0  0  0
   -4.3298    1.6948    2.3924 H   0  0  0  0  0  0  0  0  0  0  0  0
    3.0298   -2.6277    0.6958 H   0  0  0  0  0  0  0  0  0  0  0  0
    3.7328   -1.6796    2.0177 H   0  0  0  0  0  0  0  0  0  0  0  0
    2.0438   -1.4457    1.5755 H   0  0  0  0  0  0  0  0  0  0  0  0
    0.8282    3.8793   -1.1758 H   0  0  0  0  0  0  0  0  0  0  0  0
    1.1346    3.6970    0.5969 H   0  0  0  0  0  0  0  0  0  0  0  0
    2.4546    4.0809   -0.5137 H   0  0  0  0  0  0  0  0  0  0  0  0
   -1.5559   -3.0705   -1.8313 H   0  0  0  0  0  0  0  0  0  0  0  0
   -1.2833   -3.4449   -0.0832 H   0  0  0  0  0  0  0  0  0  0  0  0
   -2.8992   -3.5556   -0.7901 H   0  0  0  0  0  0  0  0  0  0  0  0
   -4.3897   -0.4635    0.2180 H   0  0  0  0  0  0  0  0  0  0  0  0
   -3.2604   -0.4239    1.6023 H   0  0  0  0  0  0  0  0  0  0  0  0
    2.5499   -1.4984   -1.5584 H   0  0  0  0  0  0  0  0  0  0  0  0
    2.9605    0.1749   -1.8181 H   0  0  0  0  0  0  0  0  0  0  0  0
    0.3932   -2.1035   -0.9495 H   0  0  0  0  0  0  0  0  0  0  0  0
   -0.8235    2.6169   -0.0714 H   0  0  0  0  0  0  0  0  0  0  0  0
    3.4203    0.4162    0.6987 H   0  0  0  0  0  0  0  0  0  0  0  0
    4.9196   -1.6614   -0.7376 H   0  0  0  0  0  0  0  0  0  0  0  0
    5.1585   -0.0515   -0.8390 H   0  0  0  0  0  0  0  0  0  0  0  0
  1  5  1  0
  2  9  1  0
  3 17  1  0
  4 18  1  0
  5 12  1  0
  6  9  1  0
  6 10  1  0
  7 10  2  0
  7 14  1  0
  8 11  1  0
  8 13  2  0
  9 15  1  0
 10 13  1  0
 11 12  1  0
 11 14  2  0
 12 16  2  0
 13 17  1  0
 14 18  1  0
  1 19  1  0
  1 20  1  0
  1 21  1  0
  2 22  1  0
  2 23  1  0
  2 24  1  0
  3 25  1  0
  3 26  1  0
  3 27  1  0
  4 28  1  0
  4 29  1  0
  4 30  1  0
  5 31  1  0
  5 32  1  0
  6 33  1  0
  6 34  1  0
  7 35  1  0
  8 36  1  0
  9 37  1  0
 15 38  1  0
 15 39  1  0
M  END
