
     RDKit          3D

 38 38  0  0  0  0  0  0  0  0999 V2000
    4.3913   -0.2036   -0.1512 C   0  0  0  0  0  0  0  0  0  0  0  0
   -0.5013   -3.1470   -1.6242 C   0  0  0  0  0  0  0  0  0  0  0  0
    0.1163    3.7392    0.2770 C   0  0  0  0  0  0  0  0  0  0  0  0
    3.4685   -0.2023    1.0579 C   0  0  0  0  0  0  0  0  0  0  0  0
   -0.7114   -2.6538   -0.1995 C   0  0  0  0  0  0  0  0  0  0  0  0
   -0.6448    2.4900   -0.1568 C   0  0  0  0  0  0  0  0  0  0  0  0
   -2.1616   -0.0313   -0.5670 C   0  0  0  0  0  0  0  0  0  0  0  0
   -3.0996   -0.0590    0.6474 C   0  0  0  0  0  0  0  0  0  0  0  0
    1.3057   -1.3357    0.4349 C   0  0  0  0  0  0  0  0  0  0  0  0
    1.3709    1.0679    0.4604 C   0  0  0  0  0  0  0  0  0  0  0  0
    2.0168   -0.1567    0.6547 C   0  0  0  0  0  0  0  0  0  0  0  0
   -0.0429   -1.3145    0.0392 C   0  0  0  0  0  0  0  0  0  0  0  0
    0.0219    1.1410    0.0670 C   0  0  0  0  0  0  0  0  0  0  0  0
   -0.6962   -0.0694   -0.1547 C   0  0  0  0  0  0  0  0  0  0  0  0
   -4.5024   -0.0128    0.2330 N   0  0  0  0  0  0  0  0  0  0  0  0
    4.2051   -1.0721   -0.7921 H   0  0  0  0  0  0  0  0  0  0  0  0
    4.2525    0.6975   -0.7582 H   0  0  0  0  0  0  0  0  0  0  0  0
    5.4369   -0.2377    0.1708 H   0  0  0  0  0  0  0  0  0  0  0  0
    0.5634   -3.2762   -1.8467 H   0  0  0  0  0  0  0  0  0  0  0  0
   -0.9126   -2.4454   -2.3572 H   0  0  0  0  0  0  0  0  0  0  0  0
   -0.9951   -4.1137   -1.7656 H   0  0  0  0  0  0  0  0  0  0  0  0
   -0.4993    4.6289    0.1072 H   0  0  0  0  0  0  0  0  0  0  0  0
    0.3678    3.7037    1.3421 H   0  0  0  0  0  0  0  0  0  0  0  0
    1.0403    3.8651   -0.2968 H   0  0  0  0  0  0  0  0  0  0  0  0
    3.6550   -1.0951    1.6672 H   0  0  0  0  0  0  0  0  0  0  0  0
    3.7004    0.6558    1.7006 H   0  0  0  0  0  0  0  0  0  0  0  0
   -0.3029   -3.3928    0.5020 H   0  0  0  0  0  0  0  0  0  0  0  0
   -1.7801   -2.6103    0.0299 H   0  0  0  0  0  0  0  0  0  0  0  0
   -1.5990    2.5016    0.3814 H   0  0  0  0  0  0  0  0  0  0  0  0
   -0.8606    2.5872   -1.2278 H   0  0  0  0  0  0  0  0  0  0  0  0
   -2.3865   -0.8669   -1.2399 H   0  0  0  0  0  0  0  0  0  0  0  0
   -2.3610    0.8563   -1.1786 H   0  0  0  0  0  0  0  0  0  0  0  0
   -2.9388   -0.9684    1.2360 H   0  0  0  0  0  0  0  0  0  0  0  0
   -2.8974    0.7879    1.3122 H   0  0  0  0  0  0  0  0  0  0  0  0
    1.8100   -2.2919    0.5669 H   0  0  0  0  0  0  0  0  0  0  0  0
    1.9490    1.9749    0.6192 H   0  0  0  0  0  0  0  0  0  0  0  0
   -4.6846    0.8639   -0.2541 H   0  0  0  0  0  0  0  0  0  0  0  0
   -5.0940   -0.0041    1.0633 H   0  0  0  0  0  0  0  0  0  0  0  0
  1  4  1  0
  2  5  1  0
  3  6  1  0
  4 11  1  0
  5 12  1  0
  6 13  1  0
  7  8  1  0
  7 14  1  0
  8 15  1  0
  9 11  2  0
  9 12  1  0
 10 11  1  0
 10 13  2  0
 12 14  2  0
 13 14  1  0
  1 16  1  0
  1 17  1  0
  1 18  1  0
  2 19  1  0
  2 20  1  0
  2 21  1  0
  3 22  1  0
  3 23  1  0
  3 24  1  0
  4 25  1  0
  4 26  1  0
  5 27  1  0
  5 28  1  0
  6 29  1  0
  6 30  1  0
  7 31  1  0
  7 32  1  0
  8 33  1  0
  8 34  1  0
  9 35  1  0
 10 36  1  0
 15 37  1  0
 15 38  1  0
M  END
