
     RDKit          3D

 38 38  0  0  0  0  0  0  0  0999 V2000
    2.9759    0.7530    1.0720 C   0  0  0  0  0  0  0  0  0  0  0  0
   -3.7042    0.0523    0.8106 C   0  0  0  0  0  0  0  0  0  0  0  0
   -2.2500   -2.4868    0.7564 C   0  0  0  0  0  0  0  0  0  0  0  0
   -2.2796    2.5519    0.2403 C   0  0  0  0  0  0  0  0  0  0  0  0
    0.4269   -2.6159   -0.3687 C   0  0  0  0  0  0  0  0  0  0  0  0
    0.3809    2.4515   -1.0019 C   0  0  0  0  0  0  0  0  0  0  0  0
    1.8703   -0.1018   -1.0704 C   0  0  0  0  0  0  0  0  0  0  0  0
    2.8861   -0.3907    0.0617 C   0  0  0  0  0  0  0  0  0  0  0  0
   -2.2601    0.0170    0.3573 C   0  0  0  0  0  0  0  0  0  0  0  0
   -1.5670   -1.2165    0.2917 C   0  0  0  0  0  0  0  0  0  0  0  0
   -1.5897    1.2206    0.0278 C   0  0  0  0  0  0  0  0  0  0  0  0
   -0.2497   -1.2664   -0.2375 C   0  0  0  0  0  0  0  0  0  0  0  0
   -0.2807    1.1762   -0.5208 C   0  0  0  0  0  0  0  0  0  0  0  0
    0.4129   -0.0643   -0.6111 C   0  0  0  0  0  0  0  0  0  0  0  0
    4.2287   -0.6137   -0.4978 N   0  0  0  0  0  0  0  0  0  0  0  0
    3.7200    0.5322    1.8460 H   0  0  0  0  0  0  0  0  0  0  0  0
    2.0186    0.9078    1.5797 H   0  0  0  0  0  0  0  0  0  0  0  0
    3.2631    1.6945    0.5908 H   0  0  0  0  0  0  0  0  0  0  0  0
   -4.2363   -0.8687    0.5537 H   0  0  0  0  0  0  0  0  0  0  0  0
   -3.7557    0.2075    1.8924 H   0  0  0  0  0  0  0  0  0  0  0  0
   -4.2646    0.8429    0.3012 H   0  0  0  0  0  0  0  0  0  0  0  0
   -2.8349   -2.9180   -0.0617 H   0  0  0  0  0  0  0  0  0  0  0  0
   -2.9056   -2.2979    1.6126 H   0  0  0  0  0  0  0  0  0  0  0  0
   -1.5362   -3.2334    1.1162 H   0  0  0  0  0  0  0  0  0  0  0  0
   -3.0425    2.5049    1.0228 H   0  0  0  0  0  0  0  0  0  0  0  0
   -1.5739    3.3093    0.5970 H   0  0  0  0  0  0  0  0  0  0  0  0
   -2.7450    2.8887   -0.6908 H   0  0  0  0  0  0  0  0  0  0  0  0
    0.7741   -2.9567    0.6119 H   0  0  0  0  0  0  0  0  0  0  0  0
   -0.2655   -3.3545   -0.7871 H   0  0  0  0  0  0  0  0  0  0  0  0
    1.2796   -2.6141   -1.0492 H   0  0  0  0  0  0  0  0  0  0  0  0
    0.8072    2.3114   -2.0004 H   0  0  0  0  0  0  0  0  0  0  0  0
    1.1599    2.7638   -0.3011 H   0  0  0  0  0  0  0  0  0  0  0  0
   -0.3186    3.2819   -1.1248 H   0  0  0  0  0  0  0  0  0  0  0  0
    2.1661    0.8268   -1.5667 H   0  0  0  0  0  0  0  0  0  0  0  0
    1.9577   -0.8483   -1.8699 H   0  0  0  0  0  0  0  0  0  0  0  0
    2.6071   -1.2985    0.6053 H   0  0  0  0  0  0  0  0  0  0  0  0
    4.5337    0.2178   -1.0026 H   0  0  0  0  0  0  0  0  0  0  0  0
    4.1912   -1.3658   -1.1847 H   0  0  0  0  0  0  0  0  0  0  0  0
  1  8  1  0
  2  9  1  0
  3 10  1  0
  4 11  1  0
  5 12  1  0
  6 13  1  0
  7  8  1  0
  7 14  1  0
  8 15  1  0
  9 10  2  0
  9 11  1  0
 10 12  1  0
 11 13  2  0
 12 14  2  0
 13 14  1  0
  1 16  1  0
  1 17  1  0
  1 18  1  0
  2 19  1  0
  2 20  1  0
  2 21  1  0
  3 22  1  0
  3 23  1  0
  3 24  1  0
  4 25  1  0
  4 26  1  0
  4 27  1  0
  5 28  1  0
  5 29  1  0
  5 30  1  0
  6 31  1  0
  6 32  1  0
  6 33  1  0
  7 34  1  0
  7 35  1  0
  8 36  1  0
 15 37  1  0
 15 38  1  0
M  END
