
     RDKit          3D

 41 41  0  0  0  0  0  0  0  0999 V2000
    4.2344    1.3923   -0.4440 C   0  0  0  0  0  0  0  0  0  0  0  0
    4.2234   -0.0643   -2.4834 C   0  0  0  0  0  0  0  0  0  0  0  0
   -5.0028   -0.4822    0.9753 C   0  0  0  0  0  0  0  0  0  0  0  0
    0.6388    0.5443    3.7594 C   0  0  0  0  0  0  0  0  0  0  0  0
   -0.1147   -1.0630   -3.4096 C   0  0  0  0  0  0  0  0  0  0  0  0
   -2.5232   -0.0382    1.1151 C   0  0  0  0  0  0  0  0  0  0  0  0
   -0.7849   -0.4873   -0.7246 C   0  0  0  0  0  0  0  0  0  0  0  0
    1.2893   -0.1864    1.1121 C   0  0  0  0  0  0  0  0  0  0  0  0
    3.3807    0.5070   -1.3463 C   0  0  0  0  0  0  0  0  0  0  0  0
   -3.6938   -0.4270    0.1798 C   0  0  0  0  0  0  0  0  0  0  0  0
   -1.0916   -0.2008    0.6205 C   0  0  0  0  0  0  0  0  0  0  0  0
   -0.0318   -0.0414    1.5407 C   0  0  0  0  0  0  0  0  0  0  0  0
    0.5375   -0.6188   -1.1616 C   0  0  0  0  0  0  0  0  0  0  0  0
    1.5680   -0.4483   -0.2306 C   0  0  0  0  0  0  0  0  0  0  0  0
   -3.8622    0.5232   -0.9323 N   0  0  0  0  0  0  0  0  0  0  0  0
   -0.3989    0.2460    2.8350 O   0  0  0  0  0  0  0  0  0  0  0  0
    0.9152   -0.9080   -2.4472 O   0  0  0  0  0  0  0  0  0  0  0  0
    2.8929   -0.5945   -0.5660 O   0  0  0  0  0  0  0  0  0  0  0  0
    4.6655    2.2286   -1.0033 H   0  0  0  0  0  0  0  0  0  0  0  0
    5.0493    0.8183    0.0141 H   0  0  0  0  0  0  0  0  0  0  0  0
    3.6345    1.7965    0.3810 H   0  0  0  0  0  0  0  0  0  0  0  0
    3.6083   -0.6946   -3.1354 H   0  0  0  0  0  0  0  0  0  0  0  0
    5.0293   -0.7010   -2.1010 H   0  0  0  0  0  0  0  0  0  0  0  0
    4.6634    0.7324   -3.0905 H   0  0  0  0  0  0  0  0  0  0  0  0
   -5.8397   -0.7806    0.3349 H   0  0  0  0  0  0  0  0  0  0  0  0
   -5.2455    0.4890    1.4190 H   0  0  0  0  0  0  0  0  0  0  0  0
   -4.9335   -1.2153    1.7865 H   0  0  0  0  0  0  0  0  0  0  0  0
    1.2407    1.3940    3.4206 H   0  0  0  0  0  0  0  0  0  0  0  0
    0.1684    0.8274    4.7063 H   0  0  0  0  0  0  0  0  0  0  0  0
    1.2628   -0.3344    3.9477 H   0  0  0  0  0  0  0  0  0  0  0  0
    0.3598   -1.2714   -4.3743 H   0  0  0  0  0  0  0  0  0  0  0  0
   -0.6947   -0.1422   -3.5181 H   0  0  0  0  0  0  0  0  0  0  0  0
   -0.7599   -1.9120   -3.1646 H   0  0  0  0  0  0  0  0  0  0  0  0
   -2.6178   -0.6579    2.0173 H   0  0  0  0  0  0  0  0  0  0  0  0
   -2.6526    1.0065    1.4329 H   0  0  0  0  0  0  0  0  0  0  0  0
   -1.5975   -0.6004   -1.4310 H   0  0  0  0  0  0  0  0  0  0  0  0
    2.1283   -0.0951    1.7937 H   0  0  0  0  0  0  0  0  0  0  0  0
    2.5699    1.1119   -1.7757 H   0  0  0  0  0  0  0  0  0  0  0  0
   -3.5096   -1.4240   -0.2414 H   0  0  0  0  0  0  0  0  0  0  0  0
   -3.9902    1.4669   -0.5581 H   0  0  0  0  0  0  0  0  0  0  0  0
   -4.7156    0.3045   -1.4463 H   0  0  0  0  0  0  0  0  0  0  0  0
  1  9  1  0
  2  9  1  0
  3 10  1  0
  4 16  1  0
  5 17  1  0
  6 10  1  0
  6 11  1  0
  7 11  2  0
  7 13  1  0
  8 12  2  0
  8 14  1  0
  9 18  1  0
 10 15  1  0
 11 12  1  0
 12 16  1  0
 13 14  2  0
 13 17  1  0
 14 18  1  0
  1 19  1  0
  1 20  1  0
  1 21  1  0
  2 22  1  0
  2 23  1  0
  2 24  1  0
  3 25  1  0
  3 26  1  0
  3 27  1  0
  4 28  1  0
  4 29  1  0
  4 30  1  0
  5 31  1  0
  5 32  1  0
  5 33  1  0
  6 34  1  0
  6 35  1  0
  7 36  1  0
  8 37  1  0
  9 38  1  0
 10 39  1  0
 15 40  1  0
 15 41  1  0
M  END
