
     RDKit          3D

 40 41  0  0  0  0  0  0  0  0999 V2000
   -1.2968   -3.0567    0.3789 C   0  0  0  0  0  0  0  0  0  0  0  0
   -3.5575    1.0794   -1.3067 C   0  0  0  0  0  0  0  0  0  0  0  0
   -1.8283    2.0578    1.5293 C   0  0  0  0  0  0  0  0  0  0  0  0
   -0.3649   -1.8793    0.1103 C   0  0  0  0  0  0  0  0  0  0  0  0
   -3.4721    0.0603   -0.1789 C   0  0  0  0  0  0  0  0  0  0  0  0
   -1.8090    0.5372    1.6108 C   0  0  0  0  0  0  0  0  0  0  0  0
    2.0664    0.0976   -2.0017 C   0  0  0  0  0  0  0  0  0  0  0  0
    3.4562   -0.0155   -1.9093 C   0  0  0  0  0  0  0  0  0  0  0  0
    1.9029    0.5338    0.4007 C   0  0  0  0  0  0  0  0  0  0  0  0
    5.3580    0.3394    1.0295 C   0  0  0  0  0  0  0  0  0  0  0  0
    1.2986    0.3531   -0.8466 C   0  0  0  0  0  0  0  0  0  0  0  0
   -1.0895   -0.6593   -0.5010 C   0  0  0  0  0  0  0  0  0  0  0  0
    4.0290    0.1454   -0.6650 C   0  0  0  0  0  0  0  0  0  0  0  0
    3.2747    0.4151    0.4549 C   0  0  0  0  0  0  0  0  0  0  0  0
   -0.1651    0.4787   -0.9940 C   0  0  0  0  0  0  0  0  0  0  0  0
   -2.1534   -0.1770    0.3924 N   0  0  0  0  0  0  0  0  0  0  0  0
   -0.5639    1.4815   -1.5859 O   0  0  0  0  0  0  0  0  0  0  0  0
    5.3582    0.0725   -0.3886 O   0  0  0  0  0  0  0  0  0  0  0  0
    4.0372    0.5469    1.5732 O   0  0  0  0  0  0  0  0  0  0  0  0
   -1.8211   -3.3584   -0.5334 H   0  0  0  0  0  0  0  0  0  0  0  0
   -2.0416   -2.8140    1.1429 H   0  0  0  0  0  0  0  0  0  0  0  0
   -0.7208   -3.9159    0.7375 H   0  0  0  0  0  0  0  0  0  0  0  0
   -3.1689    2.0563   -1.0079 H   0  0  0  0  0  0  0  0  0  0  0  0
   -3.0160    0.7421   -2.1955 H   0  0  0  0  0  0  0  0  0  0  0  0
   -4.6037    1.2176   -1.6001 H   0  0  0  0  0  0  0  0  0  0  0  0
   -2.8290    2.4369    1.3020 H   0  0  0  0  0  0  0  0  0  0  0  0
   -1.1305    2.4386    0.7802 H   0  0  0  0  0  0  0  0  0  0  0  0
   -1.5340    2.4816    2.4956 H   0  0  0  0  0  0  0  0  0  0  0  0
    0.4148   -2.2244   -0.5799 H   0  0  0  0  0  0  0  0  0  0  0  0
    0.1420   -1.6155    1.0449 H   0  0  0  0  0  0  0  0  0  0  0  0
   -4.1750    0.3509    0.6123 H   0  0  0  0  0  0  0  0  0  0  0  0
   -3.8572   -0.8956   -0.5565 H   0  0  0  0  0  0  0  0  0  0  0  0
   -0.8320    0.2164    1.9858 H   0  0  0  0  0  0  0  0  0  0  0  0
   -2.5158    0.2338    2.3940 H   0  0  0  0  0  0  0  0  0  0  0  0
    1.5788   -0.0024   -2.9693 H   0  0  0  0  0  0  0  0  0  0  0  0
    4.0655   -0.2125   -2.7844 H   0  0  0  0  0  0  0  0  0  0  0  0
    1.3327    0.7687    1.2902 H   0  0  0  0  0  0  0  0  0  0  0  0
    5.9599    1.2359    1.2181 H   0  0  0  0  0  0  0  0  0  0  0  0
    5.8198   -0.5099    1.5459 H   0  0  0  0  0  0  0  0  0  0  0  0
   -1.5486   -1.0413   -1.4247 H   0  0  0  0  0  0  0  0  0  0  0  0
  1  4  1  0
  2  5  1  0
  3  6  1  0
  4 12  1  0
  5 16  1  0
  6 16  1  0
  7  8  2  0
  7 11  1  0
  8 13  1  0
  9 11  2  0
  9 14  1  0
 10 18  1  0
 10 19  1  0
 11 15  1  0
 12 15  1  0
 12 16  1  0
 13 14  2  0
 13 18  1  0
 14 19  1  0
 15 17  2  0
  1 20  1  0
  1 21  1  0
  1 22  1  0
  2 23  1  0
  2 24  1  0
  2 25  1  0
  3 26  1  0
  3 27  1  0
  3 28  1  0
  4 29  1  0
  4 30  1  0
  5 31  1  0
  5 32  1  0
  6 33  1  0
  6 34  1  0
  7 35  1  0
  8 36  1  0
  9 37  1  0
 10 38  1  0
 10 39  1  0
 12 40  1  0
M  END
