
     RDKit          3D

 31 32  0  0  0  0  0  0  0  0999 V2000
   -3.7723   -1.4375   -0.8198 C   0  0  0  0  0  0  0  0  0  0  0  0
    5.2577    0.8491   -0.5179 C   0  0  0  0  0  0  0  0  0  0  0  0
   -1.2005    0.2936   -1.0793 C   0  0  0  0  0  0  0  0  0  0  0  0
    0.1689    0.5281   -1.2292 C   0  0  0  0  0  0  0  0  0  0  0  0
    1.4821   -0.7172    2.0001 C   0  0  0  0  0  0  0  0  0  0  0  0
    2.8497   -0.4814    1.8449 C   0  0  0  0  0  0  0  0  0  0  0  0
   -0.7993   -0.6161    1.1164 C   0  0  0  0  0  0  0  0  0  0  0  0
    2.4555    0.4244   -0.3507 C   0  0  0  0  0  0  0  0  0  0  0  0
   -3.1867   -0.5457    0.2784 C   0  0  0  0  0  0  0  0  0  0  0  0
   -1.7019   -0.2871    0.0921 C   0  0  0  0  0  0  0  0  0  0  0  0
    0.5809   -0.3855    0.9790 C   0  0  0  0  0  0  0  0  0  0  0  0
    1.0735    0.1931   -0.2106 C   0  0  0  0  0  0  0  0  0  0  0  0
    3.3442    0.0889    0.6725 C   0  0  0  0  0  0  0  0  0  0  0  0
   -3.9636    0.7473    0.4487 C   0  0  0  0  0  0  0  0  0  0  0  0
   -4.1585    1.3288    1.5058 O   0  0  0  0  0  0  0  0  0  0  0  0
   -4.4180    1.2828   -0.7022 O   0  0  0  0  0  0  0  0  0  0  0  0
    4.7007    0.2645    0.6523 O   0  0  0  0  0  0  0  0  0  0  0  0
   -4.8342   -1.6316   -0.6318 H   0  0  0  0  0  0  0  0  0  0  0  0
   -3.6967   -0.9832   -1.8137 H   0  0  0  0  0  0  0  0  0  0  0  0
   -3.2527   -2.4014   -0.8562 H   0  0  0  0  0  0  0  0  0  0  0  0
    4.8746    1.8630   -0.6736 H   0  0  0  0  0  0  0  0  0  0  0  0
    6.3399    0.9212   -0.3729 H   0  0  0  0  0  0  0  0  0  0  0  0
    5.0810    0.2194   -1.3962 H   0  0  0  0  0  0  0  0  0  0  0  0
   -1.8709    0.5757   -1.8891 H   0  0  0  0  0  0  0  0  0  0  0  0
    0.5237    0.9797   -2.1531 H   0  0  0  0  0  0  0  0  0  0  0  0
    1.1283   -1.1621    2.9272 H   0  0  0  0  0  0  0  0  0  0  0  0
    3.5351   -0.7446    2.6468 H   0  0  0  0  0  0  0  0  0  0  0  0
   -1.1742   -1.0572    2.0390 H   0  0  0  0  0  0  0  0  0  0  0  0
    2.8134    0.8702   -1.2730 H   0  0  0  0  0  0  0  0  0  0  0  0
   -3.3365   -1.0975    1.2172 H   0  0  0  0  0  0  0  0  0  0  0  0
   -4.8433    2.1184   -0.4152 H   0  0  0  0  0  0  0  0  0  0  0  0
  1  9  1  0
  2 17  1  0
  3  4  2  0
  3 10  1  0
  4 12  1  0
  5  6  1  0
  5 11  2  0
  6 13  2  0
  7 10  2  0
  7 11  1  0
  8 12  2  0
  8 13  1  0
  9 10  1  0
  9 14  1  0
 11 12  1  0
 13 17  1  0
 14 15  2  0
 14 16  1  0
  1 18  1  0
  1 19  1  0
  1 20  1  0
  2 21  1  0
  2 22  1  0
  2 23  1  0
  3 24  1  0
  4 25  1  0
  5 26  1  0
  6 27  1  0
  7 28  1  0
  8 29  1  0
  9 30  1  0
 16 31  1  0
M  END
