
     RDKit          3D

 41 42  0  0  0  0  0  0  0  0999 V2000
    6.3593    1.0087   -1.0868 C   0  0  0  0  0  0  0  0  0  0  0  0
   -0.4783    0.8135    1.4551 C   0  0  0  0  0  0  0  0  0  0  0  0
    4.9945    0.3438   -0.9908 C   0  0  0  0  0  0  0  0  0  0  0  0
    4.7691   -0.2683    0.3922 C   0  0  0  0  0  0  0  0  0  0  0  0
    3.4566   -1.0506    0.5059 C   0  0  0  0  0  0  0  0  0  0  0  0
   -2.9194   -0.3228   -1.4822 C   0  0  0  0  0  0  0  0  0  0  0  0
   -4.1303    0.2212   -1.9221 C   0  0  0  0  0  0  0  0  0  0  0  0
    2.2110   -0.1668    0.3792 C   0  0  0  0  0  0  0  0  0  0  0  0
   -1.4115   -1.2622    0.3313 C   0  0  0  0  0  0  0  0  0  0  0  0
   -3.7763   -0.4883    0.7914 C   0  0  0  0  0  0  0  0  0  0  0  0
   -6.9516    0.8448    0.0792 C   0  0  0  0  0  0  0  0  0  0  0  0
   -0.2451   -0.2414    0.3664 C   0  0  0  0  0  0  0  0  0  0  0  0
   -2.7307   -0.6788   -0.1266 C   0  0  0  0  0  0  0  0  0  0  0  0
   -5.1301    0.3957   -0.9911 C   0  0  0  0  0  0  0  0  0  0  0  0
   -4.9583    0.0504    0.3281 C   0  0  0  0  0  0  0  0  0  0  0  0
    1.0124   -0.9802    0.6052 N   0  0  0  0  0  0  0  0  0  0  0  0
   -6.3653    0.9082   -1.2375 O   0  0  0  0  0  0  0  0  0  0  0  0
   -6.0640    0.3026    1.0788 O   0  0  0  0  0  0  0  0  0  0  0  0
    6.4574    1.8108   -0.3482 H   0  0  0  0  0  0  0  0  0  0  0  0
    6.4999    1.4435   -2.0814 H   0  0  0  0  0  0  0  0  0  0  0  0
    7.1620    0.2841   -0.9167 H   0  0  0  0  0  0  0  0  0  0  0  0
   -1.4217    1.3455    1.2962 H   0  0  0  0  0  0  0  0  0  0  0  0
   -0.5131    0.3572    2.4507 H   0  0  0  0  0  0  0  0  0  0  0  0
    0.3082    1.5744    1.4581 H   0  0  0  0  0  0  0  0  0  0  0  0
    4.2252    1.0929   -1.2063 H   0  0  0  0  0  0  0  0  0  0  0  0
    4.9188   -0.4335   -1.7598 H   0  0  0  0  0  0  0  0  0  0  0  0
    4.7952    0.5193    1.1551 H   0  0  0  0  0  0  0  0  0  0  0  0
    5.5952   -0.9538    0.6189 H   0  0  0  0  0  0  0  0  0  0  0  0
    3.4449   -1.5527    1.4821 H   0  0  0  0  0  0  0  0  0  0  0  0
    3.4363   -1.8405   -0.2557 H   0  0  0  0  0  0  0  0  0  0  0  0
   -2.1170   -0.4735   -2.2019 H   0  0  0  0  0  0  0  0  0  0  0  0
   -4.2800    0.4957   -2.9600 H   0  0  0  0  0  0  0  0  0  0  0  0
    2.1731    0.2796   -0.6201 H   0  0  0  0  0  0  0  0  0  0  0  0
    2.2753    0.6390    1.1170 H   0  0  0  0  0  0  0  0  0  0  0  0
   -1.5322   -1.7273    1.3190 H   0  0  0  0  0  0  0  0  0  0  0  0
   -1.1683   -2.0858   -0.3545 H   0  0  0  0  0  0  0  0  0  0  0  0
   -3.6686   -0.7498    1.8388 H   0  0  0  0  0  0  0  0  0  0  0  0
   -7.2434    1.8571    0.3818 H   0  0  0  0  0  0  0  0  0  0  0  0
   -7.8506    0.2194    0.0326 H   0  0  0  0  0  0  0  0  0  0  0  0
   -0.1875    0.2588   -0.6087 H   0  0  0  0  0  0  0  0  0  0  0  0
    1.0487   -1.7898   -0.0149 H   0  0  0  0  0  0  0  0  0  0  0  0
  1  3  1  0
  2 12  1  0
  3  4  1  0
  4  5  1  0
  5  8  1  0
  6  7  2  0
  6 13  1  0
  7 14  1  0
  8 16  1  0
  9 12  1  0
  9 13  1  0
 10 13  2  0
 10 15  1  0
 11 17  1  0
 11 18  1  0
 12 16  1  0
 14 15  2  0
 14 17  1  0
 15 18  1  0
  1 19  1  0
  1 20  1  0
  1 21  1  0
  2 22  1  0
  2 23  1  0
  2 24  1  0
  3 25  1  0
  3 26  1  0
  4 27  1  0
  4 28  1  0
  5 29  1  0
  5 30  1  0
  6 31  1  0
  7 32  1  0
  8 33  1  0
  8 34  1  0
  9 35  1  0
  9 36  1  0
 10 37  1  0
 11 38  1  0
 11 39  1  0
 12 40  1  0
 16 41  1  0
M  END
