
     RDKit          3D

 42 43  0  0  0  0  0  0  0  0999 V2000
   -2.5944    3.9148   -0.3303 C   0  0  0  0  0  0  0  0  0  0  0  0
   -2.9673   -3.2630   -0.5849 C   0  0  0  0  0  0  0  0  0  0  0  0
   -5.5815    0.4444    0.3257 C   0  0  0  0  0  0  0  0  0  0  0  0
    5.8221   -0.0927    1.2783 C   0  0  0  0  0  0  0  0  0  0  0  0
    6.0126   -0.4759   -0.1660 C   0  0  0  0  0  0  0  0  0  0  0  0
    0.7285    0.0982    0.8103 C   0  0  0  0  0  0  0  0  0  0  0  0
    1.6640    0.0687   -0.4079 C   0  0  0  0  0  0  0  0  0  0  0  0
   -1.3348    1.4426    0.2357 C   0  0  0  0  0  0  0  0  0  0  0  0
   -1.4602   -0.9803    0.1481 C   0  0  0  0  0  0  0  0  0  0  0  0
    3.5503   -1.1976    0.4776 C   0  0  0  0  0  0  0  0  0  0  0  0
    5.0359   -1.2425    0.6933 C   0  0  0  0  0  0  0  0  0  0  0  0
   -0.7234    0.1889    0.3985 C   0  0  0  0  0  0  0  0  0  0  0  0
   -2.6715    1.5375   -0.1587 C   0  0  0  0  0  0  0  0  0  0  0  0
   -2.7982   -0.9082   -0.2468 C   0  0  0  0  0  0  0  0  0  0  0  0
   -3.3997    0.3553   -0.3753 C   0  0  0  0  0  0  0  0  0  0  0  0
    3.0891    0.0748   -0.0654 N   0  0  0  0  0  0  0  0  0  0  0  0
   -3.3528    2.7137   -0.3389 O   0  0  0  0  0  0  0  0  0  0  0  0
   -3.5966   -1.9918   -0.5083 O   0  0  0  0  0  0  0  0  0  0  0  0
   -4.7081    0.4383   -0.8019 O   0  0  0  0  0  0  0  0  0  0  0  0
   -1.7970    3.8889   -1.0806 H   0  0  0  0  0  0  0  0  0  0  0  0
   -3.2679    4.7374   -0.5894 H   0  0  0  0  0  0  0  0  0  0  0  0
   -2.1926    4.1169    0.6678 H   0  0  0  0  0  0  0  0  0  0  0  0
   -3.7215   -3.9912   -0.8985 H   0  0  0  0  0  0  0  0  0  0  0  0
   -2.5931   -3.5743    0.3957 H   0  0  0  0  0  0  0  0  0  0  0  0
   -2.1682   -3.2682   -1.3338 H   0  0  0  0  0  0  0  0  0  0  0  0
   -5.4927   -0.4807    0.9058 H   0  0  0  0  0  0  0  0  0  0  0  0
   -6.6081    0.5105   -0.0471 H   0  0  0  0  0  0  0  0  0  0  0  0
   -5.3999    1.3129    0.9681 H   0  0  0  0  0  0  0  0  0  0  0  0
    6.6216   -0.3285    1.9720 H   0  0  0  0  0  0  0  0  0  0  0  0
    5.3270    0.8468    1.4883 H   0  0  0  0  0  0  0  0  0  0  0  0
    5.6276    0.1935   -0.9272 H   0  0  0  0  0  0  0  0  0  0  0  0
    6.9364   -0.9697   -0.4449 H   0  0  0  0  0  0  0  0  0  0  0  0
    0.8645   -0.7969    1.4290 H   0  0  0  0  0  0  0  0  0  0  0  0
    0.9753    0.9509    1.4560 H   0  0  0  0  0  0  0  0  0  0  0  0
    1.4767    0.9597   -1.0201 H   0  0  0  0  0  0  0  0  0  0  0  0
    1.4331   -0.7873   -1.0546 H   0  0  0  0  0  0  0  0  0  0  0  0
   -0.7440    2.3331    0.4266 H   0  0  0  0  0  0  0  0  0  0  0  0
   -0.9652   -1.9383    0.2726 H   0  0  0  0  0  0  0  0  0  0  0  0
    3.2916   -2.0101   -0.2118 H   0  0  0  0  0  0  0  0  0  0  0  0
    3.0641   -1.4085    1.4361 H   0  0  0  0  0  0  0  0  0  0  0  0
    5.3362   -2.2404    1.0012 H   0  0  0  0  0  0  0  0  0  0  0  0
    3.2823    0.8178    0.6025 H   0  0  0  0  0  0  0  0  0  0  0  0
  1 17  1  0
  2 18  1  0
  3 19  1  0
  4  5  1  0
  4 11  1  0
  5 11  1  0
  6  7  1  0
  6 12  1  0
  7 16  1  0
  8 12  2  0
  8 13  1  0
  9 12  1  0
  9 14  2  0
 10 11  1  0
 10 16  1  0
 13 15  2  0
 13 17  1  0
 14 15  1  0
 14 18  1  0
 15 19  1  0
  1 20  1  0
  1 21  1  0
  1 22  1  0
  2 23  1  0
  2 24  1  0
  2 25  1  0
  3 26  1  0
  3 27  1  0
  3 28  1  0
  4 29  1  0
  4 30  1  0
  5 31  1  0
  5 32  1  0
  6 33  1  0
  6 34  1  0
  7 35  1  0
  7 36  1  0
  8 37  1  0
  9 38  1  0
 10 39  1  0
 10 40  1  0
 11 41  1  0
 16 42  1  0
M  END
