
     RDKit          3D

 43 43  0  0  0  0  0  0  0  0999 V2000
    5.1425   -0.1766   -0.3125 C   0  0  0  0  0  0  0  0  0  0  0  0
   -3.3547    1.3629    1.3881 C   0  0  0  0  0  0  0  0  0  0  0  0
   -3.3172   -1.1062    1.2734 C   0  0  0  0  0  0  0  0  0  0  0  0
   -3.8681    0.2793   -0.7733 C   0  0  0  0  0  0  0  0  0  0  0  0
    1.1679    3.2226    1.3856 C   0  0  0  0  0  0  0  0  0  0  0  0
   -1.2616   -2.8446   -2.0531 C   0  0  0  0  0  0  0  0  0  0  0  0
    2.7545    0.1712   -1.0409 C   0  0  0  0  0  0  0  0  0  0  0  0
    0.4381   -0.8157   -1.1120 C   0  0  0  0  0  0  0  0  0  0  0  0
   -0.5882    1.1695    0.5212 C   0  0  0  0  0  0  0  0  0  0  0  0
    3.6764   -0.3719    0.0711 C   0  0  0  0  0  0  0  0  0  0  0  0
    1.2896    0.1990   -0.6499 C   0  0  0  0  0  0  0  0  0  0  0  0
   -1.4675    0.1575    0.0652 C   0  0  0  0  0  0  0  0  0  0  0  0
    0.7697    1.2001    0.1764 C   0  0  0  0  0  0  0  0  0  0  0  0
   -0.9207   -0.8479   -0.7679 C   0  0  0  0  0  0  0  0  0  0  0  0
   -2.9640    0.1696    0.4756 C   0  0  0  0  0  0  0  0  0  0  0  0
    3.4448   -1.8040    0.3148 N   0  0  0  0  0  0  0  0  0  0  0  0
    1.6640    2.1509    0.5946 O   0  0  0  0  0  0  0  0  0  0  0  0
   -1.7736   -1.8291   -1.2006 O   0  0  0  0  0  0  0  0  0  0  0  0
    5.3910   -0.7097   -1.2372 H   0  0  0  0  0  0  0  0  0  0  0  0
    5.8089   -0.5404    0.4777 H   0  0  0  0  0  0  0  0  0  0  0  0
    5.3630    0.8853   -0.4662 H   0  0  0  0  0  0  0  0  0  0  0  0
   -4.4197    1.3296    1.6493 H   0  0  0  0  0  0  0  0  0  0  0  0
   -3.1794    2.3254    0.8933 H   0  0  0  0  0  0  0  0  0  0  0  0
   -2.7967    1.3509    2.3317 H   0  0  0  0  0  0  0  0  0  0  0  0
   -3.2384   -2.0197    0.6778 H   0  0  0  0  0  0  0  0  0  0  0  0
   -2.6570   -1.2217    2.1411 H   0  0  0  0  0  0  0  0  0  0  0  0
   -4.3487   -1.0665    1.6436 H   0  0  0  0  0  0  0  0  0  0  0  0
   -4.9226    0.3785   -0.4889 H   0  0  0  0  0  0  0  0  0  0  0  0
   -3.8060   -0.5956   -1.4258 H   0  0  0  0  0  0  0  0  0  0  0  0
   -3.6021    1.1571   -1.3742 H   0  0  0  0  0  0  0  0  0  0  0  0
    0.7828    2.8593    2.3440 H   0  0  0  0  0  0  0  0  0  0  0  0
    2.0045    3.8951    1.5983 H   0  0  0  0  0  0  0  0  0  0  0  0
    0.4097    3.7973    0.8436 H   0  0  0  0  0  0  0  0  0  0  0  0
   -0.8897   -2.4226   -2.9925 H   0  0  0  0  0  0  0  0  0  0  0  0
   -0.4903   -3.4338   -1.5464 H   0  0  0  0  0  0  0  0  0  0  0  0
   -2.0866   -3.5206   -2.2979 H   0  0  0  0  0  0  0  0  0  0  0  0
    3.0602    1.1886   -1.3191 H   0  0  0  0  0  0  0  0  0  0  0  0
    2.8822   -0.4216   -1.9572 H   0  0  0  0  0  0  0  0  0  0  0  0
    0.8740   -1.5847   -1.7432 H   0  0  0  0  0  0  0  0  0  0  0  0
   -0.9728    1.9514    1.1634 H   0  0  0  0  0  0  0  0  0  0  0  0
    3.4913    0.1674    1.0076 H   0  0  0  0  0  0  0  0  0  0  0  0
    4.0296   -2.1095    1.0918 H   0  0  0  0  0  0  0  0  0  0  0  0
    2.4808   -1.9261    0.6292 H   0  0  0  0  0  0  0  0  0  0  0  0
  1 10  1  0
  2 15  1  0
  3 15  1  0
  4 15  1  0
  5 17  1  0
  6 18  1  0
  7 10  1  0
  7 11  1  0
  8 11  2  0
  8 14  1  0
  9 12  1  0
  9 13  2  0
 10 16  1  0
 11 13  1  0
 12 14  2  0
 12 15  1  0
 13 17  1  0
 14 18  1  0
  1 19  1  0
  1 20  1  0
  1 21  1  0
  2 22  1  0
  2 23  1  0
  2 24  1  0
  3 25  1  0
  3 26  1  0
  3 27  1  0
  4 28  1  0
  4 29  1  0
  4 30  1  0
  5 31  1  0
  5 32  1  0
  5 33  1  0
  6 34  1  0
  6 35  1  0
  6 36  1  0
  7 37  1  0
  7 38  1  0
  8 39  1  0
  9 40  1  0
 10 41  1  0
 16 42  1  0
 16 43  1  0
M  END
