
     RDKit          3D

 43 44  0  0  0  0  0  0  0  0999 V2000
   -3.5910    3.1136    0.3961 C   0  0  0  0  0  0  0  0  0  0  0  0
   -2.2588   -2.2900    2.4059 C   0  0  0  0  0  0  0  0  0  0  0  0
   -3.1078    1.7561    0.8864 C   0  0  0  0  0  0  0  0  0  0  0  0
   -2.0681   -2.4661    0.9061 C   0  0  0  0  0  0  0  0  0  0  0  0
    2.3724    0.2277    1.0218 C   0  0  0  0  0  0  0  0  0  0  0  0
    2.4154   -0.4352   -2.7441 C   0  0  0  0  0  0  0  0  0  0  0  0
    0.9092    0.6604    1.1163 C   0  0  0  0  0  0  0  0  0  0  0  0
    3.7866   -0.4863   -2.9906 C   0  0  0  0  0  0  0  0  0  0  0  0
   -1.9357    1.2434    0.0377 C   0  0  0  0  0  0  0  0  0  0  0  0
   -2.2663   -1.1639    0.1148 C   0  0  0  0  0  0  0  0  0  0  0  0
    0.4352   -0.1259   -1.2291 C   0  0  0  0  0  0  0  0  0  0  0  0
    4.2204   -0.0638   -0.6514 C   0  0  0  0  0  0  0  0  0  0  0  0
    1.9303   -0.2055   -1.4466 C   0  0  0  0  0  0  0  0  0  0  0  0
    2.8412    0.0004   -0.3939 C   0  0  0  0  0  0  0  0  0  0  0  0
    0.0240   -0.2603    0.2551 C   0  0  0  0  0  0  0  0  0  0  0  0
    4.6781   -0.3030   -1.9438 C   0  0  0  0  0  0  0  0  0  0  0  0
   -1.4157   -0.0377    0.5507 N   0  0  0  0  0  0  0  0  0  0  0  0
    6.0108   -0.3654   -2.2257 O   0  0  0  0  0  0  0  0  0  0  0  0
   -2.7912    3.8590    0.4511 H   0  0  0  0  0  0  0  0  0  0  0  0
   -4.4242    3.4644    1.0130 H   0  0  0  0  0  0  0  0  0  0  0  0
   -3.9366    3.0550   -0.6410 H   0  0  0  0  0  0  0  0  0  0  0  0
   -3.2415   -1.8623    2.6289 H   0  0  0  0  0  0  0  0  0  0  0  0
   -2.1890   -3.2592    2.9100 H   0  0  0  0  0  0  0  0  0  0  0  0
   -1.4920   -1.6362    2.8328 H   0  0  0  0  0  0  0  0  0  0  0  0
   -2.7954    1.8463    1.9339 H   0  0  0  0  0  0  0  0  0  0  0  0
   -3.9519    1.0595    0.8600 H   0  0  0  0  0  0  0  0  0  0  0  0
   -2.8008   -3.1993    0.5465 H   0  0  0  0  0  0  0  0  0  0  0  0
   -1.0837   -2.9029    0.7092 H   0  0  0  0  0  0  0  0  0  0  0  0
    2.5112   -0.7068    1.5800 H   0  0  0  0  0  0  0  0  0  0  0  0
    2.9949    0.9930    1.5010 H   0  0  0  0  0  0  0  0  0  0  0  0
    1.7241   -0.5761   -3.5720 H   0  0  0  0  0  0  0  0  0  0  0  0
    0.5960    0.6272    2.1672 H   0  0  0  0  0  0  0  0  0  0  0  0
    0.8277    1.7036    0.7885 H   0  0  0  0  0  0  0  0  0  0  0  0
    4.1567   -0.6683   -3.9952 H   0  0  0  0  0  0  0  0  0  0  0  0
   -2.2357    1.1529   -1.0144 H   0  0  0  0  0  0  0  0  0  0  0  0
   -1.1637    2.0193    0.0715 H   0  0  0  0  0  0  0  0  0  0  0  0
   -2.1272   -1.3664   -0.9540 H   0  0  0  0  0  0  0  0  0  0  0  0
   -3.3238   -0.8990    0.2294 H   0  0  0  0  0  0  0  0  0  0  0  0
   -0.0501   -0.9180   -1.8116 H   0  0  0  0  0  0  0  0  0  0  0  0
    0.1051    0.8366   -1.6377 H   0  0  0  0  0  0  0  0  0  0  0  0
    4.9236    0.0747    0.1648 H   0  0  0  0  0  0  0  0  0  0  0  0
    0.2807   -1.2771    0.5766 H   0  0  0  0  0  0  0  0  0  0  0  0
    6.5064   -0.2183   -1.4039 H   0  0  0  0  0  0  0  0  0  0  0  0
  1  3  1  0
  2  4  1  0
  3  9  1  0
  4 10  1  0
  5  7  1  0
  5 14  1  0
  6  8  1  0
  6 13  2  0
  7 15  1  0
  8 16  2  0
  9 17  1  0
 10 17  1  0
 11 13  1  0
 11 15  1  0
 12 14  2  0
 12 16  1  0
 13 14  1  0
 15 17  1  0
 16 18  1  0
  1 19  1  0
  1 20  1  0
  1 21  1  0
  2 22  1  0
  2 23  1  0
  2 24  1  0
  3 25  1  0
  3 26  1  0
  4 27  1  0
  4 28  1  0
  5 29  1  0
  5 30  1  0
  6 31  1  0
  7 32  1  0
  7 33  1  0
  8 34  1  0
  9 35  1  0
  9 36  1  0
 10 37  1  0
 10 38  1  0
 11 39  1  0
 11 40  1  0
 12 41  1  0
 15 42  1  0
 18 43  1  0
M  END
