
     RDKit          3D

 20 20  0  0  0  0  0  0  0  0999 V2000
   -2.4073   -0.9160   -0.1201 C   0  0  0  0  0  0  0  0  0  0  0  0
   -2.8600    0.1994    0.5763 C   0  0  0  0  0  0  0  0  0  0  0  0
   -1.1110   -0.9360   -0.6377 C   0  0  0  0  0  0  0  0  0  0  0  0
   -2.0153    1.2938    0.7552 C   0  0  0  0  0  0  0  0  0  0  0  0
    1.1509    0.0584   -1.0526 C   0  0  0  0  0  0  0  0  0  0  0  0
    2.1295   -0.7608   -0.1962 C   0  0  0  0  0  0  0  0  0  0  0  0
   -0.2427    0.1602   -0.4716 C   0  0  0  0  0  0  0  0  0  0  0  0
   -0.7139    1.2778    0.2374 C   0  0  0  0  0  0  0  0  0  0  0  0
    0.3442    2.8287    0.5379 Br  0  0  0  0  0  0  0  0  0  0  0  0
    2.4309   -0.1456    1.0931 N   0  0  0  0  0  0  0  0  0  0  0  0
   -3.0607   -1.7736   -0.2584 H   0  0  0  0  0  0  0  0  0  0  0  0
   -3.8675    0.2173    0.9831 H   0  0  0  0  0  0  0  0  0  0  0  0
   -0.7759   -1.8214   -1.1744 H   0  0  0  0  0  0  0  0  0  0  0  0
   -2.3798    2.1583    1.3046 H   0  0  0  0  0  0  0  0  0  0  0  0
    1.0724   -0.4204   -2.0386 H   0  0  0  0  0  0  0  0  0  0  0  0
    1.5709    1.0471   -1.2654 H   0  0  0  0  0  0  0  0  0  0  0  0
    3.0666   -0.8742   -0.7532 H   0  0  0  0  0  0  0  0  0  0  0  0
    1.7333   -1.7673   -0.0220 H   0  0  0  0  0  0  0  0  0  0  0  0
    2.7385    0.8168    0.9595 H   0  0  0  0  0  0  0  0  0  0  0  0
    3.1971   -0.6426    1.5431 H   0  0  0  0  0  0  0  0  0  0  0  0
  1  2  2  0
  1  3  1  0
  2  4  1  0
  3  7  2  0
  4  8  2  0
  5  6  1  0
  5  7  1  0
  6 10  1  0
  7  8  1  0
  8  9  1  0
  1 11  1  0
  2 12  1  0
  3 13  1  0
  4 14  1  0
  5 15  1  0
  5 16  1  0
  6 17  1  0
  6 18  1  0
 10 19  1  0
 10 20  1  0
M  END
