
     RDKit          3D

 21 21  0  0  0  0  0  0  0  0999 V2000
    1.3738   -1.2952   -1.5907 C   0  0  0  0  0  0  0  0  0  0  0  0
    2.5661   -0.6979   -1.1911 C   0  0  0  0  0  0  0  0  0  0  0  0
    0.1682   -0.8852   -1.0226 C   0  0  0  0  0  0  0  0  0  0  0  0
    2.5531    0.3260   -0.2405 C   0  0  0  0  0  0  0  0  0  0  0  0
   -2.1732   -0.5229    0.8666 C   0  0  0  0  0  0  0  0  0  0  0  0
    0.1553    0.1336   -0.0577 C   0  0  0  0  0  0  0  0  0  0  0  0
    1.3481    0.7928    0.3003 C   0  0  0  0  0  0  0  0  0  0  0  0
   -1.1362    0.5490    0.5565 C   0  0  0  0  0  0  0  0  0  0  0  0
   -3.2682   -0.4408   -0.1047 N   0  0  0  0  0  0  0  0  0  0  0  0
    1.3975    1.7387    1.3446 N   0  0  0  0  0  0  0  0  0  0  0  0
   -1.3458    1.7392    0.8034 O   0  0  0  0  0  0  0  0  0  0  0  0
    1.3834   -2.0851   -2.3378 H   0  0  0  0  0  0  0  0  0  0  0  0
    3.5106   -1.0312   -1.6142 H   0  0  0  0  0  0  0  0  0  0  0  0
   -0.7555   -1.3574   -1.3495 H   0  0  0  0  0  0  0  0  0  0  0  0
    3.4975    0.7613    0.0773 H   0  0  0  0  0  0  0  0  0  0  0  0
   -1.7302   -1.5227    0.8632 H   0  0  0  0  0  0  0  0  0  0  0  0
   -2.5484   -0.3411    1.8798 H   0  0  0  0  0  0  0  0  0  0  0  0
   -3.6120    0.5236   -0.1074 H   0  0  0  0  0  0  0  0  0  0  0  0
   -4.0472   -1.0083    0.2268 H   0  0  0  0  0  0  0  0  0  0  0  0
    0.4985    2.2263    1.4392 H   0  0  0  0  0  0  0  0  0  0  0  0
    2.1646    2.3976    1.2585 H   0  0  0  0  0  0  0  0  0  0  0  0
  1  2  2  0
  1  3  1  0
  2  4  1  0
  3  6  2  0
  4  7  2  0
  5  8  1  0
  5  9  1  0
  6  7  1  0
  6  8  1  0
  7 10  1  0
  8 11  2  0
  1 12  1  0
  2 13  1  0
  3 14  1  0
  4 15  1  0
  5 16  1  0
  5 17  1  0
  9 18  1  0
  9 19  1  0
 10 20  1  0
 10 21  1  0
M  END
