
     RDKit          3D

 22 22  0  0  0  0  0  0  0  0999 V2000
    1.5537    0.3629   -0.5317 C   0  0  0  0  0  0  0  0  0  0  0  0
    2.2252   -0.0116    0.7937 C   0  0  0  0  0  0  0  0  0  0  0  0
   -0.4921   -1.0940   -0.8105 C   0  0  0  0  0  0  0  0  0  0  0  0
   -0.7918    1.1878   -0.0687 C   0  0  0  0  0  0  0  0  0  0  0  0
   -2.7159   -0.2625   -0.3393 C   0  0  0  0  0  0  0  0  0  0  0  0
    0.0601    0.1514   -0.4786 C   0  0  0  0  0  0  0  0  0  0  0  0
   -1.8687   -1.2889   -0.7399 C   0  0  0  0  0  0  0  0  0  0  0  0
   -2.1674    0.9706   -0.0061 C   0  0  0  0  0  0  0  0  0  0  0  0
    3.6692    0.2124    0.7353 N   0  0  0  0  0  0  0  0  0  0  0  0
   -2.3529   -2.5196   -1.0748 O   0  0  0  0  0  0  0  0  0  0  0  0
   -3.0230    1.9586    0.3860 O   0  0  0  0  0  0  0  0  0  0  0  0
    1.9741   -0.2317   -1.3534 H   0  0  0  0  0  0  0  0  0  0  0  0
    1.7635    1.4113   -0.7811 H   0  0  0  0  0  0  0  0  0  0  0  0
    2.0344   -1.0637    1.0351 H   0  0  0  0  0  0  0  0  0  0  0  0
    1.8090    0.5889    1.6106 H   0  0  0  0  0  0  0  0  0  0  0  0
    0.1448   -1.9167   -1.1257 H   0  0  0  0  0  0  0  0  0  0  0  0
   -0.3716    2.1536    0.1978 H   0  0  0  0  0  0  0  0  0  0  0  0
   -3.7897   -0.4013   -0.2799 H   0  0  0  0  0  0  0  0  0  0  0  0
    4.0870   -0.0767    1.6195 H   0  0  0  0  0  0  0  0  0  0  0  0
    4.0786   -0.3895    0.0212 H   0  0  0  0  0  0  0  0  0  0  0  0
   -3.3206   -2.5007   -0.9888 H   0  0  0  0  0  0  0  0  0  0  0  0
   -2.5057    2.7596    0.5723 H   0  0  0  0  0  0  0  0  0  0  0  0
  1  2  1  0
  1  6  1  0
  2  9  1  0
  3  6  2  0
  3  7  1  0
  4  6  1  0
  4  8  2  0
  5  7  2  0
  5  8  1  0
  7 10  1  0
  8 11  1  0
  1 12  1  0
  1 13  1  0
  2 14  1  0
  2 15  1  0
  3 16  1  0
  4 17  1  0
  5 18  1  0
  9 19  1  0
  9 20  1  0
 10 21  1  0
 11 22  1  0
M  END
