
     RDKit          3D

 23 23  0  0  0  0  0  0  0  0999 V2000
   -1.8936   -0.4778    1.3865 C   0  0  0  0  0  0  0  0  0  0  0  0
    0.9606    0.9437   -0.9442 C   0  0  0  0  0  0  0  0  0  0  0  0
    2.2066    1.4706   -0.5989 C   0  0  0  0  0  0  0  0  0  0  0  0
   -0.8031   -0.8480   -0.9111 C   0  0  0  0  0  0  0  0  0  0  0  0
    2.7095   -0.5408    0.6372 C   0  0  0  0  0  0  0  0  0  0  0  0
   -2.0120   -0.2869   -0.1243 C   0  0  0  0  0  0  0  0  0  0  0  0
    0.5646   -0.3330   -0.5056 C   0  0  0  0  0  0  0  0  0  0  0  0
    3.0751    0.7248    0.1902 C   0  0  0  0  0  0  0  0  0  0  0  0
    1.4606   -1.0676    0.2918 C   0  0  0  0  0  0  0  0  0  0  0  0
    4.6113    1.3719    0.6166 Cl  0  0  0  0  0  0  0  0  0  0  0  0
    1.0847   -2.6467    0.8871 Cl  0  0  0  0  0  0  0  0  0  0  0  0
   -2.2633    1.1285   -0.4236 N   0  0  0  0  0  0  0  0  0  0  0  0
   -2.8108   -0.1546    1.8922 H   0  0  0  0  0  0  0  0  0  0  0  0
   -1.7430   -1.5338    1.6325 H   0  0  0  0  0  0  0  0  0  0  0  0
   -1.0636    0.0970    1.8110 H   0  0  0  0  0  0  0  0  0  0  0  0
    0.2875    1.5441   -1.5541 H   0  0  0  0  0  0  0  0  0  0  0  0
    2.4867    2.4618   -0.9456 H   0  0  0  0  0  0  0  0  0  0  0  0
   -0.8301   -1.9423   -0.8569 H   0  0  0  0  0  0  0  0  0  0  0  0
   -0.9411   -0.6350   -1.9810 H   0  0  0  0  0  0  0  0  0  0  0  0
    3.3941   -1.1167    1.2541 H   0  0  0  0  0  0  0  0  0  0  0  0
   -2.8979   -0.8424   -0.4578 H   0  0  0  0  0  0  0  0  0  0  0  0
   -3.0696    1.4529    0.1101 H   0  0  0  0  0  0  0  0  0  0  0  0
   -2.5131    1.2302   -1.4064 H   0  0  0  0  0  0  0  0  0  0  0  0
  1  6  1  0
  2  3  2  0
  2  7  1  0
  3  8  1  0
  4  6  1  0
  4  7  1  0
  5  8  2  0
  5  9  1  0
  6 12  1  0
  7  9  2  0
  8 10  1  0
  9 11  1  0
  1 13  1  0
  1 14  1  0
  1 15  1  0
  2 16  1  0
  3 17  1  0
  4 18  1  0
  4 19  1  0
  5 20  1  0
  6 21  1  0
 12 22  1  0
 12 23  1  0
M  END
