
     RDKit          3D

 29 29  0  0  0  0  0  0  0  0999 V2000
   -3.2605   -0.0518    1.7473 C   0  0  0  0  0  0  0  0  0  0  0  0
   -1.5731    0.7886   -2.2902 C   0  0  0  0  0  0  0  0  0  0  0  0
   -2.6004    0.7105    0.6078 C   0  0  0  0  0  0  0  0  0  0  0  0
    2.6043    0.0549    1.8787 C   0  0  0  0  0  0  0  0  0  0  0  0
    3.7633   -0.6202    1.4995 C   0  0  0  0  0  0  0  0  0  0  0  0
    1.5393    0.1940    0.9812 C   0  0  0  0  0  0  0  0  0  0  0  0
    3.8572   -1.1598    0.2204 C   0  0  0  0  0  0  0  0  0  0  0  0
    0.5175   -0.2355   -1.3465 C   0  0  0  0  0  0  0  0  0  0  0  0
   -0.7553    0.5851   -1.0072 C   0  0  0  0  0  0  0  0  0  0  0  0
    1.6175   -0.3405   -0.3109 C   0  0  0  0  0  0  0  0  0  0  0  0
    2.7926   -1.0177   -0.6661 C   0  0  0  0  0  0  0  0  0  0  0  0
    2.9084   -1.5455   -1.8944 F   0  0  0  0  0  0  0  0  0  0  0  0
   -1.5467   -0.1110    0.0208 N   0  0  0  0  0  0  0  0  0  0  0  0
   -4.0458    0.5591    2.2042 H   0  0  0  0  0  0  0  0  0  0  0  0
   -2.5344   -0.3054    2.5272 H   0  0  0  0  0  0  0  0  0  0  0  0
   -3.7203   -0.9798    1.3908 H   0  0  0  0  0  0  0  0  0  0  0  0
   -0.9623    1.2625   -3.0666 H   0  0  0  0  0  0  0  0  0  0  0  0
   -2.4357    1.4406   -2.1215 H   0  0  0  0  0  0  0  0  0  0  0  0
   -1.9382   -0.1650   -2.6877 H   0  0  0  0  0  0  0  0  0  0  0  0
   -2.1821    1.6426    1.0039 H   0  0  0  0  0  0  0  0  0  0  0  0
   -3.3646    0.9654   -0.1331 H   0  0  0  0  0  0  0  0  0  0  0  0
    2.5226    0.4732    2.8792 H   0  0  0  0  0  0  0  0  0  0  0  0
    4.5870   -0.7272    2.2000 H   0  0  0  0  0  0  0  0  0  0  0  0
    0.6484    0.7177    1.3183 H   0  0  0  0  0  0  0  0  0  0  0  0
    4.7493   -1.6909   -0.0947 H   0  0  0  0  0  0  0  0  0  0  0  0
    0.2193   -1.2555   -1.6271 H   0  0  0  0  0  0  0  0  0  0  0  0
    0.9755    0.2141   -2.2388 H   0  0  0  0  0  0  0  0  0  0  0  0
   -0.4437    1.5698   -0.6361 H   0  0  0  0  0  0  0  0  0  0  0  0
   -1.9392   -0.9725   -0.3584 H   0  0  0  0  0  0  0  0  0  0  0  0
  1  3  1  0
  2  9  1  0
  3 13  1  0
  4  5  2  0
  4  6  1  0
  5  7  1  0
  6 10  2  0
  7 11  2  0
  8  9  1  0
  8 10  1  0
  9 13  1  0
 10 11  1  0
 11 12  1  0
  1 14  1  0
  1 15  1  0
  1 16  1  0
  2 17  1  0
  2 18  1  0
  2 19  1  0
  3 20  1  0
  3 21  1  0
  4 22  1  0
  5 23  1  0
  6 24  1  0
  7 25  1  0
  8 26  1  0
  8 27  1  0
  9 28  1  0
 13 29  1  0
M  END
