
     RDKit          3D

 25 25  0  0  0  0  0  0  0  0999 V2000
   -2.4789   -1.0369   -0.7289 C   0  0  0  0  0  0  0  0  0  0  0  0
    0.7478    1.2370    0.5626 C   0  0  0  0  0  0  0  0  0  0  0  0
    0.7540   -1.1816    0.4639 C   0  0  0  0  0  0  0  0  0  0  0  0
    2.0494    1.2681    0.0573 C   0  0  0  0  0  0  0  0  0  0  0  0
    2.0561   -1.1618   -0.0418 C   0  0  0  0  0  0  0  0  0  0  0  0
   -1.3238   -0.0065    1.3143 C   0  0  0  0  0  0  0  0  0  0  0  0
   -2.4610    0.1171    0.2736 C   0  0  0  0  0  0  0  0  0  0  0  0
    0.0882    0.0154    0.7676 C   0  0  0  0  0  0  0  0  0  0  0  0
    2.6994    0.0655   -0.2438 C   0  0  0  0  0  0  0  0  0  0  0  0
   -2.4294    1.4004   -0.4381 N   0  0  0  0  0  0  0  0  0  0  0  0
    4.0672    0.0908   -0.7759 N   0  0  0  0  0  4  0  0  0  0  0  0
    4.6001    1.1967   -0.9473 O   0  0  0  0  0  1  0  0  0  0  0  0
    4.6096   -0.9956   -1.0254 O   0  0  0  0  0  0  0  0  0  0  0  0
   -1.6059   -1.0215   -1.3901 H   0  0  0  0  0  0  0  0  0  0  0  0
   -3.3722   -0.9866   -1.3618 H   0  0  0  0  0  0  0  0  0  0  0  0
   -2.4970   -2.0010   -0.2096 H   0  0  0  0  0  0  0  0  0  0  0  0
    0.2440    2.1740    0.7983 H   0  0  0  0  0  0  0  0  0  0  0  0
    0.2610   -2.1393    0.6211 H   0  0  0  0  0  0  0  0  0  0  0  0
    2.5366    2.2294   -0.0917 H   0  0  0  0  0  0  0  0  0  0  0  0
    2.5503   -2.1041   -0.2693 H   0  0  0  0  0  0  0  0  0  0  0  0
   -1.4224    0.8005    2.0537 H   0  0  0  0  0  0  0  0  0  0  0  0
   -1.4651   -0.9328    1.8875 H   0  0  0  0  0  0  0  0  0  0  0  0
   -3.4054    0.0848    0.8310 H   0  0  0  0  0  0  0  0  0  0  0  0
   -1.5900    1.4416   -1.0175 H   0  0  0  0  0  0  0  0  0  0  0  0
   -3.2127    1.4465   -1.0897 H   0  0  0  0  0  0  0  0  0  0  0  0
  1  7  1  0
  2  4  2  0
  2  8  1  0
  3  5  1  0
  3  8  2  0
  4  9  1  0
  5  9  2  0
  6  7  1  0
  6  8  1  0
  7 10  1  0
  9 11  1  0
 11 12  1  0
 11 13  2  0
  1 14  1  0
  1 15  1  0
  1 16  1  0
  2 17  1  0
  3 18  1  0
  4 19  1  0
  5 20  1  0
  6 21  1  0
  6 22  1  0
  7 23  1  0
 10 24  1  0
 10 25  1  0
M  CHG  2  11   1  12  -1
M  END
