
     RDKit          3D

 24 24  0  0  0  0  0  0  0  0999 V2000
    4.0255   -0.7389   -0.6174 C   0  0  0  0  0  0  0  0  0  0  0  0
    0.8837    1.7463    0.7372 C   0  0  0  0  0  0  0  0  0  0  0  0
   -0.3829    1.1831    0.8933 C   0  0  0  0  0  0  0  0  0  0  0  0
    1.9542    0.9643    0.2965 C   0  0  0  0  0  0  0  0  0  0  0  0
   -1.9633   -0.7889    0.7740 C   0  0  0  0  0  0  0  0  0  0  0  0
   -2.9314   -0.4649   -0.3735 C   0  0  0  0  0  0  0  0  0  0  0  0
    0.4869   -0.9440    0.1655 C   0  0  0  0  0  0  0  0  0  0  0  0
   -0.5952   -0.1702    0.6115 C   0  0  0  0  0  0  0  0  0  0  0  0
    1.7600   -0.3859    0.0072 C   0  0  0  0  0  0  0  0  0  0  0  0
   -3.5236    0.8699   -0.2627 N   0  0  0  0  0  0  0  0  0  0  0  0
    2.7160   -1.2607   -0.4326 O   0  0  0  0  0  0  0  0  0  0  0  0
    4.4430   -0.3757    0.3275 H   0  0  0  0  0  0  0  0  0  0  0  0
    4.6635   -1.5547   -0.9708 H   0  0  0  0  0  0  0  0  0  0  0  0
    4.0343    0.0452   -1.3819 H   0  0  0  0  0  0  0  0  0  0  0  0
    1.0351    2.8002    0.9556 H   0  0  0  0  0  0  0  0  0  0  0  0
   -1.2087    1.8084    1.2262 H   0  0  0  0  0  0  0  0  0  0  0  0
    2.9220    1.4409    0.1875 H   0  0  0  0  0  0  0  0  0  0  0  0
   -2.3884   -0.4877    1.7403 H   0  0  0  0  0  0  0  0  0  0  0  0
   -1.8527   -1.8797    0.8340 H   0  0  0  0  0  0  0  0  0  0  0  0
   -3.7492   -1.1945   -0.3602 H   0  0  0  0  0  0  0  0  0  0  0  0
   -2.4268   -0.5575   -1.3417 H   0  0  0  0  0  0  0  0  0  0  0  0
    0.3460   -1.9977   -0.0649 H   0  0  0  0  0  0  0  0  0  0  0  0
   -4.0796    0.9274    0.5890 H   0  0  0  0  0  0  0  0  0  0  0  0
   -4.1683    1.0153   -1.0384 H   0  0  0  0  0  0  0  0  0  0  0  0
  1 11  1  0
  2  3  2  0
  2  4  1  0
  3  8  1  0
  4  9  2  0
  5  6  1  0
  5  8  1  0
  6 10  1  0
  7  8  2  0
  7  9  1  0
  9 11  1  0
  1 12  1  0
  1 13  1  0
  1 14  1  0
  2 15  1  0
  3 16  1  0
  4 17  1  0
  5 18  1  0
  5 19  1  0
  6 20  1  0
  6 21  1  0
  7 22  1  0
 10 23  1  0
 10 24  1  0
M  END
