
     RDKit          3D

 25 25  0  0  0  0  0  0  0  0999 V2000
    1.8583    0.4881   -0.2650 C   0  0  0  0  0  0  0  0  0  0  0  0
    0.9768   -0.7640   -0.2327 C   0  0  0  0  0  0  0  0  0  0  0  0
   -1.0168   -0.3450    1.2685 C   0  0  0  0  0  0  0  0  0  0  0  0
   -2.3576   -0.0020    1.4689 C   0  0  0  0  0  0  0  0  0  0  0  0
    3.3281    0.1696   -0.5365 C   0  0  0  0  0  0  0  0  0  0  0  0
   -1.2963   -0.1167   -1.1267 C   0  0  0  0  0  0  0  0  0  0  0  0
   -0.4771   -0.4105   -0.0276 C   0  0  0  0  0  0  0  0  0  0  0  0
   -3.1556    0.2807    0.3675 C   0  0  0  0  0  0  0  0  0  0  0  0
   -2.6254    0.2242   -0.9186 C   0  0  0  0  0  0  0  0  0  0  0  0
    3.9226   -0.6126    0.5414 N   0  0  0  0  0  0  0  0  0  0  0  0
   -4.4736    0.6227    0.4982 O   0  0  0  0  0  0  0  0  0  0  0  0
   -3.4175    0.5081   -1.9946 O   0  0  0  0  0  0  0  0  0  0  0  0
    1.7651    1.0387    0.6803 H   0  0  0  0  0  0  0  0  0  0  0  0
    1.5025    1.1665   -1.0512 H   0  0  0  0  0  0  0  0  0  0  0  0
    1.2968   -1.4443    0.5659 H   0  0  0  0  0  0  0  0  0  0  0  0
    1.0830   -1.3259   -1.1694 H   0  0  0  0  0  0  0  0  0  0  0  0
   -0.3885   -0.5638    2.1298 H   0  0  0  0  0  0  0  0  0  0  0  0
   -2.7504    0.0385    2.4793 H   0  0  0  0  0  0  0  0  0  0  0  0
    3.4244   -0.3815   -1.4782 H   0  0  0  0  0  0  0  0  0  0  0  0
    3.8866    1.1056   -0.6467 H   0  0  0  0  0  0  0  0  0  0  0  0
   -0.9056   -0.1518   -2.1396 H   0  0  0  0  0  0  0  0  0  0  0  0
    4.9095   -0.7693    0.3382 H   0  0  0  0  0  0  0  0  0  0  0  0
    3.8947   -0.0760    1.4079 H   0  0  0  0  0  0  0  0  0  0  0  0
   -4.6933    0.6092    1.4455 H   0  0  0  0  0  0  0  0  0  0  0  0
   -4.2908    0.7114   -1.6045 H   0  0  0  0  0  0  0  0  0  0  0  0
  1  2  1  0
  1  5  1  0
  2  7  1  0
  3  4  2  0
  3  7  1  0
  4  8  1  0
  5 10  1  0
  6  7  2  0
  6  9  1  0
  8  9  2  0
  8 11  1  0
  9 12  1  0
  1 13  1  0
  1 14  1  0
  2 15  1  0
  2 16  1  0
  3 17  1  0
  4 18  1  0
  5 19  1  0
  5 20  1  0
  6 21  1  0
 10 22  1  0
 10 23  1  0
 11 24  1  0
 12 25  1  0
M  END
