
     RDKit          3D

 31 31  0  0  0  0  0  0  0  0999 V2000
   -2.5092   -2.0676    1.7993 C   0  0  0  0  0  0  0  0  0  0  0  0
   -1.5550    2.0109   -2.6729 C   0  0  0  0  0  0  0  0  0  0  0  0
    3.9630   -0.8628    1.3307 C   0  0  0  0  0  0  0  0  0  0  0  0
   -0.9859   -1.2497   -0.0456 C   0  0  0  0  0  0  0  0  0  0  0  0
    1.3921   -0.4632    0.2266 C   0  0  0  0  0  0  0  0  0  0  0  0
    0.9699    1.7402   -1.4263 C   0  0  0  0  0  0  0  0  0  0  0  0
   -1.8257   -0.8464    1.1870 C   0  0  0  0  0  0  0  0  0  0  0  0
    0.1239   -0.2583   -0.3561 C   0  0  0  0  0  0  0  0  0  0  0  0
    2.2259    1.5193   -0.8449 C   0  0  0  0  0  0  0  0  0  0  0  0
   -0.0840    0.8559   -1.1871 C   0  0  0  0  0  0  0  0  0  0  0  0
    2.4529    0.4155   -0.0123 C   0  0  0  0  0  0  0  0  0  0  0  0
    3.7424    2.9147   -1.2727 I   0  0  0  0  0  0  0  0  0  0  0  0
   -2.8681    0.1248    0.8404 N   0  0  0  0  0  0  0  0  0  0  0  0
   -1.3476    1.0007   -1.6935 O   0  0  0  0  0  0  0  0  0  0  0  0
    3.7069    0.2753    0.5190 O   0  0  0  0  0  0  0  0  0  0  0  0
   -3.1022   -1.7893    2.6779 H   0  0  0  0  0  0  0  0  0  0  0  0
   -1.7659   -2.8036    2.1248 H   0  0  0  0  0  0  0  0  0  0  0  0
   -3.1761   -2.5575    1.0808 H   0  0  0  0  0  0  0  0  0  0  0  0
   -2.5866    1.9248   -3.0275 H   0  0  0  0  0  0  0  0  0  0  0  0
   -0.8936    1.8716   -3.5345 H   0  0  0  0  0  0  0  0  0  0  0  0
   -1.4354    3.0082   -2.2375 H   0  0  0  0  0  0  0  0  0  0  0  0
    3.3452   -0.8491    2.2346 H   0  0  0  0  0  0  0  0  0  0  0  0
    3.8220   -1.7908    0.7670 H   0  0  0  0  0  0  0  0  0  0  0  0
    5.0106   -0.8205    1.6441 H   0  0  0  0  0  0  0  0  0  0  0  0
   -0.5220   -2.2303    0.1291 H   0  0  0  0  0  0  0  0  0  0  0  0
   -1.6228   -1.3988   -0.9274 H   0  0  0  0  0  0  0  0  0  0  0  0
    1.5210   -1.3283    0.8702 H   0  0  0  0  0  0  0  0  0  0  0  0
    0.8331    2.6122   -2.0566 H   0  0  0  0  0  0  0  0  0  0  0  0
   -1.1722   -0.3998    1.9465 H   0  0  0  0  0  0  0  0  0  0  0  0
   -3.1915    0.5979    1.6819 H   0  0  0  0  0  0  0  0  0  0  0  0
   -2.4653    0.8439    0.2350 H   0  0  0  0  0  0  0  0  0  0  0  0
  1  7  1  0
  2 14  1  0
  3 15  1  0
  4  7  1  0
  4  8  1  0
  5  8  2  0
  5 11  1  0
  6  9  1  0
  6 10  2  0
  7 13  1  0
  8 10  1  0
  9 11  2  0
  9 12  1  0
 10 14  1  0
 11 15  1  0
  1 16  1  0
  1 17  1  0
  1 18  1  0
  2 19  1  0
  2 20  1  0
  2 21  1  0
  3 22  1  0
  3 23  1  0
  3 24  1  0
  4 25  1  0
  4 26  1  0
  5 27  1  0
  6 28  1  0
  7 29  1  0
 13 30  1  0
 13 31  1  0
M  END
