
     RDKit          3D

 38 39  0  0  0  0  0  0  0  0999 V2000
    6.1568   -0.4700   -0.3584 C   0  0  0  0  0  0  0  0  0  0  0  0
    2.4965   -1.0296    1.8821 C   0  0  0  0  0  0  0  0  0  0  0  0
   -5.1783   -2.3554   -0.1373 C   0  0  0  0  0  0  0  0  0  0  0  0
    5.1052   -1.0254    0.2600 C   0  0  0  0  0  0  0  0  0  0  0  0
   -4.2730    0.1791   -1.0256 C   0  0  0  0  0  0  0  0  0  0  0  0
   -3.7877    1.4281   -1.4367 C   0  0  0  0  0  0  0  0  0  0  0  0
    0.6940    1.1814    0.8090 C   0  0  0  0  0  0  0  0  0  0  0  0
    3.6850   -0.9390   -0.2293 C   0  0  0  0  0  0  0  0  0  0  0  0
    1.5758    0.2072    0.0058 C   0  0  0  0  0  0  0  0  0  0  0  0
   -2.2232   -0.2690    0.1799 C   0  0  0  0  0  0  0  0  0  0  0  0
   -0.5656    2.8809   -0.6550 C   0  0  0  0  0  0  0  0  0  0  0  0
   -0.4748    1.6722    0.0075 C   0  0  0  0  0  0  0  0  0  0  0  0
   -3.5050   -0.6659   -0.2255 C   0  0  0  0  0  0  0  0  0  0  0  0
   -1.7088    0.9817   -0.2196 C   0  0  0  0  0  0  0  0  0  0  0  0
   -2.5056    1.7997   -1.0187 C   0  0  0  0  0  0  0  0  0  0  0  0
   -1.7884    2.9465   -1.2659 N   0  0  0  0  0  0  0  0  0  0  0  0
    2.8122   -0.2089    0.7077 N   0  0  0  0  0  0  0  0  0  0  0  0
   -3.8819   -1.9018    0.2298 O   0  0  0  0  0  0  0  0  0  0  0  0
    6.0414    0.1102   -1.2684 H   0  0  0  0  0  0  0  0  0  0  0  0
    7.1579   -0.5755    0.0473 H   0  0  0  0  0  0  0  0  0  0  0  0
    3.4034   -1.3489    2.4055 H   0  0  0  0  0  0  0  0  0  0  0  0
    1.9224   -1.9248    1.6170 H   0  0  0  0  0  0  0  0  0  0  0  0
    1.9255   -0.4590    2.6210 H   0  0  0  0  0  0  0  0  0  0  0  0
   -5.3242   -3.3448    0.3068 H   0  0  0  0  0  0  0  0  0  0  0  0
   -5.9556   -1.6945    0.2604 H   0  0  0  0  0  0  0  0  0  0  0  0
   -5.2662   -2.4622   -1.2235 H   0  0  0  0  0  0  0  0  0  0  0  0
    5.2835   -1.5955    1.1673 H   0  0  0  0  0  0  0  0  0  0  0  0
   -5.2683   -0.1022   -1.3544 H   0  0  0  0  0  0  0  0  0  0  0  0
   -4.3925    2.0800   -2.0586 H   0  0  0  0  0  0  0  0  0  0  0  0
    0.3109    0.7030    1.7174 H   0  0  0  0  0  0  0  0  0  0  0  0
    1.2966    2.0391    1.1343 H   0  0  0  0  0  0  0  0  0  0  0  0
    3.6956   -0.4277   -1.2012 H   0  0  0  0  0  0  0  0  0  0  0  0
    3.3022   -1.9500   -0.4198 H   0  0  0  0  0  0  0  0  0  0  0  0
    0.9912   -0.6735   -0.2932 H   0  0  0  0  0  0  0  0  0  0  0  0
    1.8552    0.7222   -0.9238 H   0  0  0  0  0  0  0  0  0  0  0  0
   -1.6288   -0.9294    0.8042 H   0  0  0  0  0  0  0  0  0  0  0  0
    0.1382    3.6984   -0.7411 H   0  0  0  0  0  0  0  0  0  0  0  0
   -2.1216    3.7232   -1.8196 H   0  0  0  0  0  0  0  0  0  0  0  0
  1  4  2  3
  2 17  1  0
  3 18  1  0
  4  8  1  0
  5  6  2  0
  5 13  1  0
  6 15  1  0
  7  9  1  0
  7 12  1  0
  8 17  1  0
  9 17  1  0
 10 13  2  0
 10 14  1  0
 11 12  2  0
 11 16  1  0
 12 14  1  0
 13 18  1  0
 14 15  2  0
 15 16  1  0
  1 19  1  0
  1 20  1  0
  2 21  1  0
  2 22  1  0
  2 23  1  0
  3 24  1  0
  3 25  1  0
  3 26  1  0
  4 27  1  0
  5 28  1  0
  6 29  1  0
  7 30  1  0
  7 31  1  0
  8 32  1  0
  8 33  1  0
  9 34  1  0
  9 35  1  0
 10 36  1  0
 11 37  1  0
 16 38  1  0
M  END
