
     RDKit          3D

 43 43  0  0  0  0  0  0  0  0999 V2000
    5.4531   -0.4409    0.4725 C   0  0  0  0  0  0  0  0  0  0  0  0
    1.8338   -0.8031    1.6688 C   0  0  0  0  0  0  0  0  0  0  0  0
    2.3678   -0.7112    0.2353 C   0  0  0  0  0  0  0  0  0  0  0  0
    0.7050    0.1918    1.9464 C   0  0  0  0  0  0  0  0  0  0  0  0
   -0.4969    1.8458   -0.4577 C   0  0  0  0  0  0  0  0  0  0  0  0
   -2.4917    1.4597    0.8655 C   0  0  0  0  0  0  0  0  0  0  0  0
   -1.1038    2.9609   -1.0408 C   0  0  0  0  0  0  0  0  0  0  0  0
   -3.0956    2.5749    0.2812 C   0  0  0  0  0  0  0  0  0  0  0  0
   -1.5123   -3.3545   -1.0796 C   0  0  0  0  0  0  0  0  0  0  0  0
    3.5004   -1.7064   -0.0202 C   0  0  0  0  0  0  0  0  0  0  0  0
   -2.4115   -2.7942    0.0299 C   0  0  0  0  0  0  0  0  0  0  0  0
   -1.1944    1.0983    0.4934 C   0  0  0  0  0  0  0  0  0  0  0  0
   -2.4055    3.3420   -0.6721 C   0  0  0  0  0  0  0  0  0  0  0  0
   -0.5525   -0.0787    1.1302 C   0  0  0  0  0  0  0  0  0  0  0  0
   -3.0685    4.5334   -1.3226 C   0  0  0  0  0  0  0  0  0  0  0  0
   -2.1824    5.5005   -1.6906 F   0  0  0  0  0  0  0  0  0  0  0  0
   -3.7449    4.1946   -2.4539 F   0  0  0  0  0  0  0  0  0  0  0  0
   -3.9744    5.1490   -0.5129 F   0  0  0  0  0  0  0  0  0  0  0  0
   -1.6957   -2.6675   -2.3671 N   0  0  0  0  0  0  0  0  0  0  0  0
   -1.0028   -1.2979    1.0743 N   0  0  0  0  0  0  0  0  0  0  0  0
    4.6050   -1.5124    0.8613 O   0  0  0  0  0  0  0  0  0  0  0  0
   -2.1337   -1.4090    0.2526 O   0  0  0  0  0  0  0  0  0  0  0  0
    6.2967   -0.4044    1.1673 H   0  0  0  0  0  0  0  0  0  0  0  0
    5.8430   -0.6040   -0.5368 H   0  0  0  0  0  0  0  0  0  0  0  0
    4.9258    0.5152    0.5243 H   0  0  0  0  0  0  0  0  0  0  0  0
    1.4918   -1.8263    1.8659 H   0  0  0  0  0  0  0  0  0  0  0  0
    2.6469   -0.6015    2.3764 H   0  0  0  0  0  0  0  0  0  0  0  0
    2.7165    0.3105    0.0500 H   0  0  0  0  0  0  0  0  0  0  0  0
    1.5630   -0.9136   -0.4804 H   0  0  0  0  0  0  0  0  0  0  0  0
    0.4187    0.1161    3.0029 H   0  0  0  0  0  0  0  0  0  0  0  0
    1.0605    1.2154    1.7870 H   0  0  0  0  0  0  0  0  0  0  0  0
    0.5077    1.5625   -0.7593 H   0  0  0  0  0  0  0  0  0  0  0  0
   -3.0331    0.8705    1.6025 H   0  0  0  0  0  0  0  0  0  0  0  0
   -0.5577    3.5351   -1.7888 H   0  0  0  0  0  0  0  0  0  0  0  0
   -4.1103    2.8443    0.5724 H   0  0  0  0  0  0  0  0  0  0  0  0
   -0.4593   -3.2561   -0.7952 H   0  0  0  0  0  0  0  0  0  0  0  0
   -1.7209   -4.4204   -1.2172 H   0  0  0  0  0  0  0  0  0  0  0  0
    3.1312   -2.7241    0.1483 H   0  0  0  0  0  0  0  0  0  0  0  0
    3.8339   -1.6557   -1.0634 H   0  0  0  0  0  0  0  0  0  0  0  0
   -3.4646   -2.8750   -0.2604 H   0  0  0  0  0  0  0  0  0  0  0  0
   -2.2835   -3.3615    0.9597 H   0  0  0  0  0  0  0  0  0  0  0  0
   -2.6749   -2.7308   -2.6435 H   0  0  0  0  0  0  0  0  0  0  0  0
   -1.5303   -1.6713   -2.2053 H   0  0  0  0  0  0  0  0  0  0  0  0
  1 21  1  0
  2  3  1  0
  2  4  1  0
  3 10  1  0
  4 14  1  0
  5  7  2  0
  5 12  1  0
  6  8  1  0
  6 12  2  0
  7 13  1  0
  8 13  2  0
  9 11  1  0
  9 19  1  0
 10 21  1  0
 11 22  1  0
 12 14  1  0
 13 15  1  0
 14 20  2  3
 15 16  1  0
 15 17  1  0
 15 18  1  0
 20 22  1  0
  1 23  1  0
  1 24  1  0
  1 25  1  0
  2 26  1  0
  2 27  1  0
  3 28  1  0
  3 29  1  0
  4 30  1  0
  4 31  1  0
  5 32  1  0
  6 33  1  0
  7 34  1  0
  8 35  1  0
  9 36  1  0
  9 37  1  0
 10 38  1  0
 10 39  1  0
 11 40  1  0
 11 41  1  0
 19 42  1  0
 19 43  1  0
M  END
