
     RDKit          3D

 39 40  0  0  0  0  0  0  0  0999 V2000
    4.8645   -1.9319    0.2174 C   0  0  0  0  0  0  0  0  0  0  0  0
    0.4970    4.4277   -0.2194 C   0  0  0  0  0  0  0  0  0  0  0  0
   -2.6688   -2.2151   -0.4371 C   0  0  0  0  0  0  0  0  0  0  0  0
   -3.8432   -1.3610    0.0290 C   0  0  0  0  0  0  0  0  0  0  0  0
   -1.4958   -1.3720   -0.9419 C   0  0  0  0  0  0  0  0  0  0  0  0
    3.1777   -0.8489   -1.3040 C   0  0  0  0  0  0  0  0  0  0  0  0
    2.7332   -0.8963    1.0644 C   0  0  0  0  0  0  0  0  0  0  0  0
    1.9645   -0.1908   -1.5198 C   0  0  0  0  0  0  0  0  0  0  0  0
    1.5194   -0.2388    0.8509 C   0  0  0  0  0  0  0  0  0  0  0  0
   -3.8951   -0.0440   -0.7309 C   0  0  0  0  0  0  0  0  0  0  0  0
    3.5772   -1.1966   -0.0096 C   0  0  0  0  0  0  0  0  0  0  0  0
    1.1195    0.1205   -0.4450 C   0  0  0  0  0  0  0  0  0  0  0  0
   -1.4518    0.0119   -0.2641 C   0  0  0  0  0  0  0  0  0  0  0  0
   -0.2021    0.8361   -0.6990 C   0  0  0  0  0  0  0  0  0  0  0  0
   -0.1883    2.1967   -0.0067 C   0  0  0  0  0  0  0  0  0  0  0  0
   -2.6917    0.7715   -0.5636 N   0  0  0  0  0  0  0  0  0  0  0  0
   -0.6269    2.4213    1.1167 O   0  0  0  0  0  0  0  0  0  0  0  0
    0.4126    3.1291   -0.8050 O   0  0  0  0  0  0  0  0  0  0  0  0
    5.2859   -1.6883    1.1984 H   0  0  0  0  0  0  0  0  0  0  0  0
    4.6931   -3.0114    0.1640 H   0  0  0  0  0  0  0  0  0  0  0  0
    5.6109   -1.6541   -0.5341 H   0  0  0  0  0  0  0  0  0  0  0  0
    0.9895    5.0912   -0.9357 H   0  0  0  0  0  0  0  0  0  0  0  0
    1.0985    4.3978    0.6945 H   0  0  0  0  0  0  0  0  0  0  0  0
   -0.5032    4.8216   -0.0138 H   0  0  0  0  0  0  0  0  0  0  0  0
   -2.9894   -2.8918   -1.2383 H   0  0  0  0  0  0  0  0  0  0  0  0
   -2.3428   -2.8535    0.3929 H   0  0  0  0  0  0  0  0  0  0  0  0
   -4.7795   -1.9153   -0.1019 H   0  0  0  0  0  0  0  0  0  0  0  0
   -3.7484   -1.1599    1.1038 H   0  0  0  0  0  0  0  0  0  0  0  0
   -0.5729   -1.9367   -0.7717 H   0  0  0  0  0  0  0  0  0  0  0  0
   -1.5816   -1.2448   -2.0295 H   0  0  0  0  0  0  0  0  0  0  0  0
    3.8111   -1.0865   -2.1559 H   0  0  0  0  0  0  0  0  0  0  0  0
    3.0171   -1.1694    2.0784 H   0  0  0  0  0  0  0  0  0  0  0  0
    1.6842    0.0736   -2.5374 H   0  0  0  0  0  0  0  0  0  0  0  0
    0.8919   -0.0072    1.7100 H   0  0  0  0  0  0  0  0  0  0  0  0
   -4.7667    0.5369   -0.4090 H   0  0  0  0  0  0  0  0  0  0  0  0
   -4.0364   -0.2427   -1.8002 H   0  0  0  0  0  0  0  0  0  0  0  0
   -1.4160   -0.1481    0.8226 H   0  0  0  0  0  0  0  0  0  0  0  0
   -0.3062    1.0295   -1.7769 H   0  0  0  0  0  0  0  0  0  0  0  0
   -2.8409    1.4396    0.1989 H   0  0  0  0  0  0  0  0  0  0  0  0
  1 11  1  0
  2 18  1  0
  3  4  1  0
  3  5  1  0
  4 10  1  0
  5 13  1  0
  6  8  2  0
  6 11  1  0
  7  9  1  0
  7 11  2  0
  8 12  1  0
  9 12  2  0
 10 16  1  0
 12 14  1  0
 13 14  1  0
 13 16  1  0
 14 15  1  0
 15 17  2  0
 15 18  1  0
  1 19  1  0
  1 20  1  0
  1 21  1  0
  2 22  1  0
  2 23  1  0
  2 24  1  0
  3 25  1  0
  3 26  1  0
  4 27  1  0
  4 28  1  0
  5 29  1  0
  5 30  1  0
  6 31  1  0
  7 32  1  0
  8 33  1  0
  9 34  1  0
 10 35  1  0
 10 36  1  0
 13 37  1  0
 14 38  1  0
 16 39  1  0
M  END
