
     RDKit          3D

 36 38  0  0  0  0  0  0  0  0999 V2000
    5.1787    1.2815   -0.5262 C   0  0  0  0  0  0  0  0  0  0  0  0
    1.5205   -1.7560    1.0347 C   0  0  0  0  0  0  0  0  0  0  0  0
   -0.0493   -1.8469   -1.9576 C   0  0  0  0  0  0  0  0  0  0  0  0
   -4.9415    0.9031    1.2127 C   0  0  0  0  0  0  0  0  0  0  0  0
   -5.3510   -0.2458    0.5374 C   0  0  0  0  0  0  0  0  0  0  0  0
   -3.6064    1.3010    1.1558 C   0  0  0  0  0  0  0  0  0  0  0  0
   -4.4254   -0.9940   -0.1953 C   0  0  0  0  0  0  0  0  0  0  0  0
    2.7736    1.8237   -1.0201 C   0  0  0  0  0  0  0  0  0  0  0  0
    1.4130    1.5216   -0.9532 C   0  0  0  0  0  0  0  0  0  0  0  0
    3.2749   -0.2149    0.1650 C   0  0  0  0  0  0  0  0  0  0  0  0
    3.7171    0.9460   -0.4826 C   0  0  0  0  0  0  0  0  0  0  0  0
    1.9058   -0.5276    0.2566 C   0  0  0  0  0  0  0  0  0  0  0  0
   -0.9482   -1.0232   -1.0574 C   0  0  0  0  0  0  0  0  0  0  0  0
   -2.6869    0.5426    0.4194 C   0  0  0  0  0  0  0  0  0  0  0  0
   -3.0850   -0.6051   -0.2589 C   0  0  0  0  0  0  0  0  0  0  0  0
    0.9703    0.3360   -0.3466 C   0  0  0  0  0  0  0  0  0  0  0  0
   -1.2645    0.9236    0.3530 C   0  0  0  0  0  0  0  0  0  0  0  0
   -2.1979   -1.3692   -1.0216 N   0  0  0  0  0  0  0  0  0  0  0  0
   -0.4274    0.0508   -0.3517 N   0  0  0  0  0  0  0  0  0  0  0  0
   -0.9078    1.9528    0.9249 O   0  0  0  0  0  0  0  0  0  0  0  0
    5.4172    1.8744   -1.4154 H   0  0  0  0  0  0  0  0  0  0  0  0
    5.4586    1.8517    0.3649 H   0  0  0  0  0  0  0  0  0  0  0  0
    5.7864    0.3716   -0.5706 H   0  0  0  0  0  0  0  0  0  0  0  0
    2.0830   -1.7978    1.9742 H   0  0  0  0  0  0  0  0  0  0  0  0
    0.4613   -1.7638    1.3064 H   0  0  0  0  0  0  0  0  0  0  0  0
    1.7439   -2.6563    0.4549 H   0  0  0  0  0  0  0  0  0  0  0  0
    0.3071   -2.7234   -1.4115 H   0  0  0  0  0  0  0  0  0  0  0  0
   -0.6281   -2.2009   -2.8175 H   0  0  0  0  0  0  0  0  0  0  0  0
    0.7982   -1.2791   -2.3449 H   0  0  0  0  0  0  0  0  0  0  0  0
   -5.6600    1.4869    1.7829 H   0  0  0  0  0  0  0  0  0  0  0  0
   -6.3911   -0.5604    0.5775 H   0  0  0  0  0  0  0  0  0  0  0  0
   -3.2832    2.1950    1.6847 H   0  0  0  0  0  0  0  0  0  0  0  0
   -4.7486   -1.8864   -0.7256 H   0  0  0  0  0  0  0  0  0  0  0  0
    3.0891    2.7500   -1.4950 H   0  0  0  0  0  0  0  0  0  0  0  0
    0.6972    2.2168   -1.3866 H   0  0  0  0  0  0  0  0  0  0  0  0
    4.0064   -0.8783    0.6251 H   0  0  0  0  0  0  0  0  0  0  0  0
  1 11  1  0
  2 12  1  0
  3 13  1  0
  4  5  2  0
  4  6  1  0
  5  7  1  0
  6 14  2  0
  7 15  2  0
  8  9  2  0
  8 11  1  0
  9 16  1  0
 10 11  2  0
 10 12  1  0
 12 16  2  0
 13 18  2  0
 13 19  1  0
 14 15  1  0
 14 17  1  0
 15 18  1  0
 16 19  1  0
 17 19  1  0
 17 20  2  0
  1 21  1  0
  1 22  1  0
  1 23  1  0
  2 24  1  0
  2 25  1  0
  2 26  1  0
  3 27  1  0
  3 28  1  0
  3 29  1  0
  4 30  1  0
  5 31  1  0
  6 32  1  0
  7 33  1  0
  8 34  1  0
  9 35  1  0
 10 36  1  0
M  END
