
     RDKit          3D

 44 46  0  0  0  0  0  0  0  0999 V2000
    4.4105    0.6237    1.0016 C   0  0  0  0  0  0  0  0  0  0  0  0
   -2.3843    2.6239    0.0762 C   0  0  0  0  0  0  0  0  0  0  0  0
   -1.0521    2.5481    0.8078 C   0  0  0  0  0  0  0  0  0  0  0  0
   -2.4275    1.6610   -1.1012 C   0  0  0  0  0  0  0  0  0  0  0  0
   -0.3867   -3.5970    0.5359 C   0  0  0  0  0  0  0  0  0  0  0  0
   -1.1894   -3.2369    1.7757 C   0  0  0  0  0  0  0  0  0  0  0  0
    1.6807    0.8064   -2.9286 C   0  0  0  0  0  0  0  0  0  0  0  0
    0.5223    0.5425   -2.1931 C   0  0  0  0  0  0  0  0  0  0  0  0
    2.9102    0.9088   -2.2850 C   0  0  0  0  0  0  0  0  0  0  0  0
   -0.7639    1.1146    1.2578 C   0  0  0  0  0  0  0  0  0  0  0  0
   -2.0534    0.2246   -0.7037 C   0  0  0  0  0  0  0  0  0  0  0  0
   -0.5206   -2.3785   -0.3589 C   0  0  0  0  0  0  0  0  0  0  0  0
   -1.3614   -1.7208    1.7202 C   0  0  0  0  0  0  0  0  0  0  0  0
    1.8347    0.4696   -0.1771 C   0  0  0  0  0  0  0  0  0  0  0  0
    0.5626    0.3992   -0.7959 C   0  0  0  0  0  0  0  0  0  0  0  0
    2.9983    0.7307   -0.9069 C   0  0  0  0  0  0  0  0  0  0  0  0
   -0.6969    0.0877    0.0710 C   0  0  0  0  0  0  0  0  0  0  0  0
   -0.5074   -1.2873    0.6163 N   0  0  0  0  0  0  0  0  0  0  0  0
    4.2648    0.8267   -0.3981 O   0  0  0  0  0  0  0  0  0  0  0  0
    5.4717    0.7313    1.2459 H   0  0  0  0  0  0  0  0  0  0  0  0
    3.8604    1.3808    1.5703 H   0  0  0  0  0  0  0  0  0  0  0  0
    4.1048   -0.3881    1.2881 H   0  0  0  0  0  0  0  0  0  0  0  0
   -2.5577    3.6473   -0.2752 H   0  0  0  0  0  0  0  0  0  0  0  0
   -3.1984    2.3853    0.7718 H   0  0  0  0  0  0  0  0  0  0  0  0
   -0.2465    2.9216    0.1658 H   0  0  0  0  0  0  0  0  0  0  0  0
   -1.0851    3.2039    1.6857 H   0  0  0  0  0  0  0  0  0  0  0  0
   -1.7632    2.0327   -1.8873 H   0  0  0  0  0  0  0  0  0  0  0  0
   -3.4363    1.6617   -1.5312 H   0  0  0  0  0  0  0  0  0  0  0  0
   -0.7534   -4.5096    0.0565 H   0  0  0  0  0  0  0  0  0  0  0  0
    0.6642   -3.7564    0.8078 H   0  0  0  0  0  0  0  0  0  0  0  0
   -0.6643   -3.5554    2.6824 H   0  0  0  0  0  0  0  0  0  0  0  0
   -2.1671   -3.7315    1.7599 H   0  0  0  0  0  0  0  0  0  0  0  0
    1.6241    0.9234   -4.0076 H   0  0  0  0  0  0  0  0  0  0  0  0
   -0.4038    0.4413   -2.7494 H   0  0  0  0  0  0  0  0  0  0  0  0
    3.8084    1.1111   -2.8621 H   0  0  0  0  0  0  0  0  0  0  0  0
    0.1510    1.1081    1.8606 H   0  0  0  0  0  0  0  0  0  0  0  0
   -1.5718    0.8376    1.9481 H   0  0  0  0  0  0  0  0  0  0  0  0
   -2.8726   -0.1466   -0.0750 H   0  0  0  0  0  0  0  0  0  0  0  0
   -2.0699   -0.4004   -1.6037 H   0  0  0  0  0  0  0  0  0  0  0  0
    0.3075   -2.3352   -1.0721 H   0  0  0  0  0  0  0  0  0  0  0  0
   -1.4651   -2.4328   -0.9115 H   0  0  0  0  0  0  0  0  0  0  0  0
   -2.4188   -1.4889    1.5566 H   0  0  0  0  0  0  0  0  0  0  0  0
   -1.0527   -1.2743    2.6709 H   0  0  0  0  0  0  0  0  0  0  0  0
    1.8941    0.2861    0.8907 H   0  0  0  0  0  0  0  0  0  0  0  0
  1 19  1  0
  2  3  1  0
  2  4  1  0
  3 10  1  0
  4 11  1  0
  5  6  1  0
  5 12  1  0
  6 13  1  0
  7  8  2  0
  7  9  1  0
  8 15  1  0
  9 16  2  0
 10 17  1  0
 11 17  1  0
 12 18  1  0
 13 18  1  0
 14 15  2  0
 14 16  1  0
 15 17  1  0
 16 19  1  0
 17 18  1  0
  1 20  1  0
  1 21  1  0
  1 22  1  0
  2 23  1  0
  2 24  1  0
  3 25  1  0
  3 26  1  0
  4 27  1  0
  4 28  1  0
  5 29  1  0
  5 30  1  0
  6 31  1  0
  6 32  1  0
  7 33  1  0
  8 34  1  0
  9 35  1  0
 10 36  1  0
 10 37  1  0
 11 38  1  0
 11 39  1  0
 12 40  1  0
 12 41  1  0
 13 42  1  0
 13 43  1  0
 14 44  1  0
M  END
