
     RDKit          3D

 46 47  0  0  0  0  0  0  0  0999 V2000
   -3.8906   -0.1499    2.1562 C   0  0  0  0  0  0  0  0  0  0  0  0
   -4.2499   -1.0038   -1.9846 C   0  0  0  0  0  0  0  0  0  0  0  0
    5.6179    2.3262    1.7482 C   0  0  0  0  0  0  0  0  0  0  0  0
   -3.4800    1.2409    1.6908 C   0  0  0  0  0  0  0  0  0  0  0  0
   -3.3307    0.0970   -2.4950 C   0  0  0  0  0  0  0  0  0  0  0  0
    5.0844   -0.0041    0.2263 C   0  0  0  0  0  0  0  0  0  0  0  0
    4.7761   -1.1548   -0.5122 C   0  0  0  0  0  0  0  0  0  0  0  0
   -0.1917   -1.0961    0.1951 C   0  0  0  0  0  0  0  0  0  0  0  0
   -2.1487    1.2490    0.9242 C   0  0  0  0  0  0  0  0  0  0  0  0
   -2.8689    1.0588   -1.3883 C   0  0  0  0  0  0  0  0  0  0  0  0
   -0.7800    0.0308   -0.6750 C   0  0  0  0  0  0  0  0  0  0  0  0
    2.7498    0.3252    0.7706 C   0  0  0  0  0  0  0  0  0  0  0  0
    1.4962   -2.5921   -1.0416 C   0  0  0  0  0  0  0  0  0  0  0  0
    1.1794   -1.4992   -0.2589 C   0  0  0  0  0  0  0  0  0  0  0  0
    4.0875    0.7331    0.8638 C   0  0  0  0  0  0  0  0  0  0  0  0
    2.4102   -0.8279    0.0330 C   0  0  0  0  0  0  0  0  0  0  0  0
    3.4337   -1.5400   -0.5899 C   0  0  0  0  0  0  0  0  0  0  0  0
    2.8512   -2.6073   -1.2323 N   0  0  0  0  0  0  0  0  0  0  0  0
   -2.1608    0.3908   -0.2778 N   0  0  0  0  0  0  0  0  0  0  0  0
    4.2791    1.8695    1.6051 O   0  0  0  0  0  0  0  0  0  0  0  0
   -4.8003   -0.0912    2.7630 H   0  0  0  0  0  0  0  0  0  0  0  0
   -4.0978   -0.8093    1.3080 H   0  0  0  0  0  0  0  0  0  0  0  0
   -3.1058   -0.6087    2.7663 H   0  0  0  0  0  0  0  0  0  0  0  0
   -3.7270   -1.6714   -1.2936 H   0  0  0  0  0  0  0  0  0  0  0  0
   -4.6126   -1.6080   -2.8215 H   0  0  0  0  0  0  0  0  0  0  0  0
   -5.1192   -0.5828   -1.4695 H   0  0  0  0  0  0  0  0  0  0  0  0
    6.0529    2.5863    0.7773 H   0  0  0  0  0  0  0  0  0  0  0  0
    5.5974    3.2363    2.3560 H   0  0  0  0  0  0  0  0  0  0  0  0
    6.2328    1.5875    2.2726 H   0  0  0  0  0  0  0  0  0  0  0  0
   -4.2854    1.6740    1.0885 H   0  0  0  0  0  0  0  0  0  0  0  0
   -3.3738    1.8867    2.5718 H   0  0  0  0  0  0  0  0  0  0  0  0
   -2.4769   -0.3543   -3.0108 H   0  0  0  0  0  0  0  0  0  0  0  0
   -3.8710    0.6799   -3.2516 H   0  0  0  0  0  0  0  0  0  0  0  0
    6.1281    0.2883    0.2813 H   0  0  0  0  0  0  0  0  0  0  0  0
    5.5584   -1.7231   -1.0047 H   0  0  0  0  0  0  0  0  0  0  0  0
   -0.8564   -1.9693    0.1575 H   0  0  0  0  0  0  0  0  0  0  0  0
   -0.1344   -0.7964    1.2474 H   0  0  0  0  0  0  0  0  0  0  0  0
   -1.8814    2.2804    0.6604 H   0  0  0  0  0  0  0  0  0  0  0  0
   -1.3824    0.9131    1.6313 H   0  0  0  0  0  0  0  0  0  0  0  0
   -3.7720    1.5576   -1.0195 H   0  0  0  0  0  0  0  0  0  0  0  0
   -2.2431    1.8483   -1.8254 H   0  0  0  0  0  0  0  0  0  0  0  0
   -0.1311    0.9168   -0.6596 H   0  0  0  0  0  0  0  0  0  0  0  0
   -0.7645   -0.3316   -1.7094 H   0  0  0  0  0  0  0  0  0  0  0  0
    1.9761    0.9013    1.2696 H   0  0  0  0  0  0  0  0  0  0  0  0
    0.8698   -3.3592   -1.4771 H   0  0  0  0  0  0  0  0  0  0  0  0
    3.3556   -3.2974   -1.7704 H   0  0  0  0  0  0  0  0  0  0  0  0
  1  4  1  0
  2  5  1  0
  3 20  1  0
  4  9  1  0
  5 10  1  0
  6  7  2  0
  6 15  1  0
  7 17  1  0
  8 11  1  0
  8 14  1  0
  9 19  1  0
 10 19  1  0
 11 19  1  0
 12 15  2  0
 12 16  1  0
 13 14  2  0
 13 18  1  0
 14 16  1  0
 15 20  1  0
 16 17  2  0
 17 18  1  0
  1 21  1  0
  1 22  1  0
  1 23  1  0
  2 24  1  0
  2 25  1  0
  2 26  1  0
  3 27  1  0
  3 28  1  0
  3 29  1  0
  4 30  1  0
  4 31  1  0
  5 32  1  0
  5 33  1  0
  6 34  1  0
  7 35  1  0
  8 36  1  0
  8 37  1  0
  9 38  1  0
  9 39  1  0
 10 40  1  0
 10 41  1  0
 11 42  1  0
 11 43  1  0
 12 44  1  0
 13 45  1  0
 18 46  1  0
M  END
