
     RDKit          3D

 42 45  0  0  0  0  0  0  0  0999 V2000
   -3.4601   -0.0851   -2.9558 C   0  0  0  0  0  0  0  0  0  0  0  0
   -4.7095   -0.5992   -2.6075 C   0  0  0  0  0  0  0  0  0  0  0  0
   -2.3748   -0.2455   -2.0942 C   0  0  0  0  0  0  0  0  0  0  0  0
   -4.8778   -1.2765   -1.3970 C   0  0  0  0  0  0  0  0  0  0  0  0
    4.9904   -0.9626    0.6879 C   0  0  0  0  0  0  0  0  0  0  0  0
    5.3557    0.4410    0.2958 C   0  0  0  0  0  0  0  0  0  0  0  0
   -0.0038    2.6113    1.7329 C   0  0  0  0  0  0  0  0  0  0  0  0
    0.9367    1.7178    1.2071 C   0  0  0  0  0  0  0  0  0  0  0  0
   -1.7597    1.0387    1.2029 C   0  0  0  0  0  0  0  0  0  0  0  0
    0.3295   -2.4312    0.9118 C   0  0  0  0  0  0  0  0  0  0  0  0
    2.8451    0.1452   -0.3359 C   0  0  0  0  0  0  0  0  0  0  0  0
    3.9383    0.1186    0.7001 C   0  0  0  0  0  0  0  0  0  0  0  0
   -1.3515    2.2626    1.7374 C   0  0  0  0  0  0  0  0  0  0  0  0
   -2.5460   -0.9207   -0.8781 C   0  0  0  0  0  0  0  0  0  0  0  0
   -0.8105    0.1463    0.6603 C   0  0  0  0  0  0  0  0  0  0  0  0
   -3.7963   -1.4430   -0.5281 C   0  0  0  0  0  0  0  0  0  0  0  0
    0.5694    0.4594    0.6827 C   0  0  0  0  0  0  0  0  0  0  0  0
    1.5055   -1.8150    0.1755 C   0  0  0  0  0  0  0  0  0  0  0  0
   -1.3561   -1.0771   -0.0015 C   0  0  0  0  0  0  0  0  0  0  0  0
   -4.0798   -2.2377    0.9781 Cl  0  0  0  0  0  0  0  0  0  0  0  0
   -0.8657   -2.2631    0.0982 N   0  0  0  0  0  0  0  0  0  0  0  0
    1.5969   -0.4165    0.1879 N   0  0  0  0  0  0  0  0  0  0  0  0
   -2.3459    3.1903    2.2910 N   0  0  0  0  0  4  0  0  0  0  0  0
    2.3543   -2.5348   -0.3579 O   0  0  0  0  0  0  0  0  0  0  0  0
   -1.9291    4.2283    2.8230 O   0  0  0  0  0  1  0  0  0  0  0  0
   -3.5404    2.8808    2.1864 O   0  0  0  0  0  0  0  0  0  0  0  0
   -3.3309    0.4308   -3.9047 H   0  0  0  0  0  0  0  0  0  0  0  0
   -5.5546   -0.4772   -3.2817 H   0  0  0  0  0  0  0  0  0  0  0  0
   -1.3986    0.1361   -2.3831 H   0  0  0  0  0  0  0  0  0  0  0  0
   -5.8574   -1.6709   -1.1367 H   0  0  0  0  0  0  0  0  0  0  0  0
    4.9505   -1.7184   -0.0898 H   0  0  0  0  0  0  0  0  0  0  0  0
    5.3426   -1.3376    1.6422 H   0  0  0  0  0  0  0  0  0  0  0  0
    5.5747    0.6274   -0.7498 H   0  0  0  0  0  0  0  0  0  0  0  0
    5.9653    1.0149    0.9847 H   0  0  0  0  0  0  0  0  0  0  0  0
    0.3383    3.5621    2.1390 H   0  0  0  0  0  0  0  0  0  0  0  0
    1.9773    2.0301    1.2546 H   0  0  0  0  0  0  0  0  0  0  0  0
   -2.8162    0.7759    1.2093 H   0  0  0  0  0  0  0  0  0  0  0  0
    0.5257   -3.5021    1.0347 H   0  0  0  0  0  0  0  0  0  0  0  0
    0.2291   -2.0196    1.9225 H   0  0  0  0  0  0  0  0  0  0  0  0
    2.6801    1.1679   -0.6941 H   0  0  0  0  0  0  0  0  0  0  0  0
    3.1465   -0.4267   -1.2229 H   0  0  0  0  0  0  0  0  0  0  0  0
    3.6128    0.4750    1.6699 H   0  0  0  0  0  0  0  0  0  0  0  0
  1  2  2  0
  1  3  1  0
  2  4  1  0
  3 14  2  0
  4 16  2  0
  5  6  1  0
  5 12  1  0
  6 12  1  0
  7  8  2  0
  7 13  1  0
  8 17  1  0
  9 13  2  0
  9 15  1  0
 10 18  1  0
 10 21  1  0
 11 12  1  0
 11 22  1  0
 13 23  1  0
 14 16  1  0
 14 19  1  0
 15 17  2  0
 15 19  1  0
 16 20  1  0
 17 22  1  0
 18 22  1  0
 18 24  2  0
 19 21  2  0
 23 25  1  0
 23 26  2  0
  1 27  1  0
  2 28  1  0
  3 29  1  0
  4 30  1  0
  5 31  1  0
  5 32  1  0
  6 33  1  0
  6 34  1  0
  7 35  1  0
  8 36  1  0
  9 37  1  0
 10 38  1  0
 10 39  1  0
 11 40  1  0
 11 41  1  0
 12 42  1  0
M  CHG  2  23   1  25  -1
M  END
