
     RDKit          3D

 49 52  0  0  0  0  0  0  0  0999 V2000
   -5.4299   -0.5022   -0.5590 C   0  0  0  0  0  0  0  0  0  0  0  0
    6.2906    1.0868    1.6764 C   0  0  0  0  0  0  0  0  0  0  0  0
    5.1077    1.5410    2.2454 C   0  0  0  0  0  0  0  0  0  0  0  0
    1.0982   -3.2774    0.3267 C   0  0  0  0  0  0  0  0  0  0  0  0
   -0.2212   -3.6788    0.4860 C   0  0  0  0  0  0  0  0  0  0  0  0
   -6.1048    0.7171    0.0692 C   0  0  0  0  0  0  0  0  0  0  0  0
   -3.9115   -0.4042   -0.7277 C   0  0  0  0  0  0  0  0  0  0  0  0
    3.9773    0.1016   -2.5021 C   0  0  0  0  0  0  0  0  0  0  0  0
    6.2947    0.6214    0.3619 C   0  0  0  0  0  0  0  0  0  0  0  0
    5.1362    0.1286   -1.7263 C   0  0  0  0  0  0  0  0  0  0  0  0
    3.9273    1.5285    1.5004 C   0  0  0  0  0  0  0  0  0  0  0  0
    1.4178   -1.9216    0.1912 C   0  0  0  0  0  0  0  0  0  0  0  0
    2.7758    0.5437   -1.9622 C   0  0  0  0  0  0  0  0  0  0  0  0
   -1.2525   -2.7392    0.5233 C   0  0  0  0  0  0  0  0  0  0  0  0
   -5.9337    1.9957   -0.7328 C   0  0  0  0  0  0  0  0  0  0  0  0
   -3.1651   -0.2378    0.5957 C   0  0  0  0  0  0  0  0  0  0  0  0
   -0.9591    0.8654    0.2439 C   0  0  0  0  0  0  0  0  0  0  0  0
    5.1164    0.6017   -0.4025 C   0  0  0  0  0  0  0  0  0  0  0  0
    3.9026    1.0606    0.1652 C   0  0  0  0  0  0  0  0  0  0  0  0
    0.3971   -0.9423    0.2082 C   0  0  0  0  0  0  0  0  0  0  0  0
    2.7366    1.0083   -0.6388 C   0  0  0  0  0  0  0  0  0  0  0  0
    0.3655    0.4915    0.0922 C   0  0  0  0  0  0  0  0  0  0  0  0
   -0.9232   -1.3791    0.3901 C   0  0  0  0  0  0  0  0  0  0  0  0
    1.4329    1.4683   -0.1201 C   0  0  0  0  0  0  0  0  0  0  0  0
   -6.6418    2.9825   -0.1198 F   0  0  0  0  0  0  0  0  0  0  0  0
   -1.7212   -0.2561    0.4086 N   0  0  0  0  0  0  0  0  0  0  0  0
    1.2801    2.6712    0.0811 O   0  0  0  0  0  0  0  0  0  0  0  0
   -5.8770   -0.6862   -1.5439 H   0  0  0  0  0  0  0  0  0  0  0  0
   -5.6622   -1.3824    0.0534 H   0  0  0  0  0  0  0  0  0  0  0  0
    7.2118    1.0976    2.2531 H   0  0  0  0  0  0  0  0  0  0  0  0
    5.0992    1.9103    3.2678 H   0  0  0  0  0  0  0  0  0  0  0  0
    1.8927   -4.0195    0.3108 H   0  0  0  0  0  0  0  0  0  0  0  0
   -0.4541   -4.7358    0.5910 H   0  0  0  0  0  0  0  0  0  0  0  0
   -5.7438    0.8776    1.0912 H   0  0  0  0  0  0  0  0  0  0  0  0
   -7.1780    0.5135    0.1704 H   0  0  0  0  0  0  0  0  0  0  0  0
   -3.6584    0.4185   -1.4071 H   0  0  0  0  0  0  0  0  0  0  0  0
   -3.5666   -1.3187   -1.2273 H   0  0  0  0  0  0  0  0  0  0  0  0
    4.0157   -0.2615   -3.5261 H   0  0  0  0  0  0  0  0  0  0  0  0
    7.2333    0.2731   -0.0645 H   0  0  0  0  0  0  0  0  0  0  0  0
    6.0674   -0.2216   -2.1685 H   0  0  0  0  0  0  0  0  0  0  0  0
    3.0201    1.9000    1.9751 H   0  0  0  0  0  0  0  0  0  0  0  0
    2.4620   -1.6452    0.0824 H   0  0  0  0  0  0  0  0  0  0  0  0
    1.8733    0.5277   -2.5691 H   0  0  0  0  0  0  0  0  0  0  0  0
   -2.2794   -3.0639    0.6573 H   0  0  0  0  0  0  0  0  0  0  0  0
   -4.8899    2.3171   -0.7752 H   0  0  0  0  0  0  0  0  0  0  0  0
   -6.3184    1.8875   -1.7509 H   0  0  0  0  0  0  0  0  0  0  0  0
   -3.4225   -1.0335    1.3030 H   0  0  0  0  0  0  0  0  0  0  0  0
   -3.4148    0.7162    1.0734 H   0  0  0  0  0  0  0  0  0  0  0  0
   -1.4033    1.8537    0.2377 H   0  0  0  0  0  0  0  0  0  0  0  0
  1  6  1  0
  1  7  1  0
  2  3  2  0
  2  9  1  0
  3 11  1  0
  4  5  2  0
  4 12  1  0
  5 14  1  0
  6 15  1  0
  7 16  1  0
  8 10  2  0
  8 13  1  0
  9 18  2  0
 10 18  1  0
 11 19  2  0
 12 20  2  0
 13 21  2  0
 14 23  2  0
 15 25  1  0
 16 26  1  0
 17 22  2  0
 17 26  1  0
 18 19  1  0
 19 21  1  0
 20 22  1  0
 20 23  1  0
 21 24  1  0
 22 24  1  0
 23 26  1  0
 24 27  2  0
  1 28  1  0
  1 29  1  0
  2 30  1  0
  3 31  1  0
  4 32  1  0
  5 33  1  0
  6 34  1  0
  6 35  1  0
  7 36  1  0
  7 37  1  0
  8 38  1  0
  9 39  1  0
 10 40  1  0
 11 41  1  0
 12 42  1  0
 13 43  1  0
 14 44  1  0
 15 45  1  0
 15 46  1  0
 16 47  1  0
 16 48  1  0
 17 49  1  0
M  END
