
     RDKit          3D

 59 61  0  0  0  0  0  0  0  0999 V2000
   -3.1212    3.1428    1.6705 C   0  0  0  0  0  0  0  0  0  0  0  0
   -4.3110    2.4728    1.0011 C   0  0  0  0  0  0  0  0  0  0  0  0
   -4.1147    2.2442   -0.5006 C   0  0  0  0  0  0  0  0  0  0  0  0
    7.6495    2.2165    0.3392 C   0  0  0  0  0  0  0  0  0  0  0  0
   -3.7526   -5.2737    0.3567 C   0  0  0  0  0  0  0  0  0  0  0  0
    7.4033    1.2197   -0.6031 C   0  0  0  0  0  0  0  0  0  0  0  0
    6.7024    2.4930    1.3234 C   0  0  0  0  0  0  0  0  0  0  0  0
   -2.7197   -5.0095   -0.5370 C   0  0  0  0  0  0  0  0  0  0  0  0
   -4.3941   -4.2191    0.9989 C   0  0  0  0  0  0  0  0  0  0  0  0
    6.2098    0.4974   -0.5615 C   0  0  0  0  0  0  0  0  0  0  0  0
    5.5081    1.7721    1.3669 C   0  0  0  0  0  0  0  0  0  0  0  0
   -2.3262   -3.6901   -0.7834 C   0  0  0  0  0  0  0  0  0  0  0  0
   -3.9999   -2.9002    0.7504 C   0  0  0  0  0  0  0  0  0  0  0  0
   -3.0695    1.1767   -0.8523 C   0  0  0  0  0  0  0  0  0  0  0  0
    3.9518   -0.0019    0.4592 C   0  0  0  0  0  0  0  0  0  0  0  0
   -0.4630   -0.4614   -1.6769 C   0  0  0  0  0  0  0  0  0  0  0  0
   -0.5495   -0.3379    0.8852 C   0  0  0  0  0  0  0  0  0  0  0  0
    2.8606    0.7042   -0.3644 C   0  0  0  0  0  0  0  0  0  0  0  0
    0.6758    0.5226   -1.4056 C   0  0  0  0  0  0  0  0  0  0  0  0
    0.9798   -0.2210    0.9008 C   0  0  0  0  0  0  0  0  0  0  0  0
    5.2532    0.7643    0.4270 C   0  0  0  0  0  0  0  0  0  0  0  0
   -2.9567   -2.6119   -0.1407 C   0  0  0  0  0  0  0  0  0  0  0  0
   -1.0429   -1.0489   -0.3820 C   0  0  0  0  0  0  0  0  0  0  0  0
   -3.5029   -0.2413   -0.4838 C   0  0  0  0  0  0  0  0  0  0  0  0
    1.5960   -0.0527   -0.4246 N   0  0  0  0  0  0  0  0  0  0  0  0
   -2.5269   -1.2524   -0.3923 N   0  0  0  0  0  0  0  0  0  0  0  0
   -4.7154   -0.4608   -0.3837 O   0  0  0  0  0  0  0  0  0  0  0  0
   -2.2358    2.5033    1.6534 H   0  0  0  0  0  0  0  0  0  0  0  0
   -2.8739    4.0883    1.1776 H   0  0  0  0  0  0  0  0  0  0  0  0
   -3.3533    3.3591    2.7183 H   0  0  0  0  0  0  0  0  0  0  0  0
   -4.5337    1.5288    1.5100 H   0  0  0  0  0  0  0  0  0  0  0  0
   -5.1876    3.1176    1.1382 H   0  0  0  0  0  0  0  0  0  0  0  0
   -3.8225    3.1908   -0.9721 H   0  0  0  0  0  0  0  0  0  0  0  0
   -5.0816    1.9701   -0.9404 H   0  0  0  0  0  0  0  0  0  0  0  0
    8.5795    2.7778    0.3063 H   0  0  0  0  0  0  0  0  0  0  0  0
   -4.0632   -6.2975    0.5466 H   0  0  0  0  0  0  0  0  0  0  0  0
    8.1412    1.0043   -1.3715 H   0  0  0  0  0  0  0  0  0  0  0  0
    6.8941    3.2708    2.0578 H   0  0  0  0  0  0  0  0  0  0  0  0
   -2.2256   -5.8280   -1.0538 H   0  0  0  0  0  0  0  0  0  0  0  0
   -5.2051   -4.4162    1.6951 H   0  0  0  0  0  0  0  0  0  0  0  0
    6.0304   -0.2759   -1.3053 H   0  0  0  0  0  0  0  0  0  0  0  0
    4.7781    2.0007    2.1400 H   0  0  0  0  0  0  0  0  0  0  0  0
   -1.5457   -3.5217   -1.5205 H   0  0  0  0  0  0  0  0  0  0  0  0
   -4.5117   -2.1055    1.2871 H   0  0  0  0  0  0  0  0  0  0  0  0
   -2.9572    1.1895   -1.9425 H   0  0  0  0  0  0  0  0  0  0  0  0
   -2.1136    1.4552   -0.4232 H   0  0  0  0  0  0  0  0  0  0  0  0
    4.1175   -1.0162    0.0736 H   0  0  0  0  0  0  0  0  0  0  0  0
    3.6411   -0.1222    1.5042 H   0  0  0  0  0  0  0  0  0  0  0  0
   -1.2168    0.0160   -2.3057 H   0  0  0  0  0  0  0  0  0  0  0  0
   -0.0814   -1.2919   -2.2876 H   0  0  0  0  0  0  0  0  0  0  0  0
   -0.8807   -0.8864    1.7761 H   0  0  0  0  0  0  0  0  0  0  0  0
   -0.9739    0.6619    0.9824 H   0  0  0  0  0  0  0  0  0  0  0  0
    3.2445    0.8318   -1.3855 H   0  0  0  0  0  0  0  0  0  0  0  0
    2.6819    1.7145    0.0279 H   0  0  0  0  0  0  0  0  0  0  0  0
    1.1884    0.7049   -2.3582 H   0  0  0  0  0  0  0  0  0  0  0  0
    0.2864    1.4897   -1.0635 H   0  0  0  0  0  0  0  0  0  0  0  0
    1.3952   -1.1301    1.3521 H   0  0  0  0  0  0  0  0  0  0  0  0
    1.2358    0.6108    1.5701 H   0  0  0  0  0  0  0  0  0  0  0  0
   -0.5752   -2.0382   -0.2959 H   0  0  0  0  0  0  0  0  0  0  0  0
  1  2  1  0
  2  3  1  0
  3 14  1  0
  4  6  2  0
  4  7  1  0
  5  8  2  0
  5  9  1  0
  6 10  1  0
  7 11  2  0
  8 12  1  0
  9 13  2  0
 10 21  2  0
 11 21  1  0
 12 22  2  0
 13 22  1  0
 14 24  1  0
 15 18  1  0
 15 21  1  0
 16 19  1  0
 16 23  1  0
 17 20  1  0
 17 23  1  0
 18 25  1  0
 19 25  1  0
 20 25  1  0
 22 26  1  0
 23 26  1  0
 24 26  1  0
 24 27  2  0
  1 28  1  0
  1 29  1  0
  1 30  1  0
  2 31  1  0
  2 32  1  0
  3 33  1  0
  3 34  1  0
  4 35  1  0
  5 36  1  0
  6 37  1  0
  7 38  1  0
  8 39  1  0
  9 40  1  0
 10 41  1  0
 11 42  1  0
 12 43  1  0
 13 44  1  0
 14 45  1  0
 14 46  1  0
 15 47  1  0
 15 48  1  0
 16 49  1  0
 16 50  1  0
 17 51  1  0
 17 52  1  0
 18 53  1  0
 18 54  1  0
 19 55  1  0
 19 56  1  0
 20 57  1  0
 20 58  1  0
 23 59  1  0
M  END
