
     RDKit          3D

 62 68  0  0  0  0  0  0  0  0999 V2000
   -0.9243    6.1042    1.0018 C   0  0  0  0  0  0  0  0  0  0  0  0
    2.8375   -4.4998   -2.4955 C   0  0  0  0  0  0  0  0  0  0  0  0
    0.1415   -4.9994    1.4846 C   0  0  0  0  0  0  0  0  0  0  0  0
    2.5607   -3.3754   -1.7206 C   0  0  0  0  0  0  0  0  0  0  0  0
   -0.6041   -3.8495    1.2297 C   0  0  0  0  0  0  0  0  0  0  0  0
    1.7435    1.7454    2.0921 C   0  0  0  0  0  0  0  0  0  0  0  0
   -2.8391    1.5772    1.9665 C   0  0  0  0  0  0  0  0  0  0  0  0
    2.3224    0.6230    1.4620 C   0  0  0  0  0  0  0  0  0  0  0  0
   -2.9615    0.2785    1.6576 C   0  0  0  0  0  0  0  0  0  0  0  0
   -1.1137    3.0038   -1.1760 C   0  0  0  0  0  0  0  0  0  0  0  0
    3.6375   -4.3460   -3.6157 C   0  0  0  0  0  0  0  0  0  0  0  0
    0.2743   -5.9367    0.4725 C   0  0  0  0  0  0  0  0  0  0  0  0
   -0.6050    4.3432   -0.6186 C   0  0  0  0  0  0  0  0  0  0  0  0
   -0.2343    3.3670    2.3278 C   0  0  0  0  0  0  0  0  0  0  0  0
    3.8689   -2.0842   -3.2385 C   0  0  0  0  0  0  0  0  0  0  0  0
   -1.0081   -4.6750   -0.9730 C   0  0  0  0  0  0  0  0  0  0  0  0
    0.5133    2.2463    1.6543 C   0  0  0  0  0  0  0  0  0  0  0  0
    3.0817   -2.1354   -2.0953 C   0  0  0  0  0  0  0  0  0  0  0  0
   -1.2005   -3.6787   -0.0232 C   0  0  0  0  0  0  0  0  0  0  0  0
   -2.3221    2.5864    0.9755 C   0  0  0  0  0  0  0  0  0  0  0  0
   -1.5587    3.8016    1.6009 C   0  0  0  0  0  0  0  0  0  0  0  0
    1.6585   -0.0129    0.4079 C   0  0  0  0  0  0  0  0  0  0  0  0
   -2.6035   -0.3213    0.3185 C   0  0  0  0  0  0  0  0  0  0  0  0
   -0.0869    1.6010    0.5880 C   0  0  0  0  0  0  0  0  0  0  0  0
    0.4305    0.4648    0.0106 C   0  0  0  0  0  0  0  0  0  0  0  0
   -1.7151    0.5679   -0.6173 C   0  0  0  0  0  0  0  0  0  0  0  0
    2.8159   -0.8758   -1.3650 C   0  0  0  0  0  0  0  0  0  0  0  0
   -2.0049   -2.4948   -0.3934 C   0  0  0  0  0  0  0  0  0  0  0  0
   -1.3794    1.9690   -0.0625 C   0  0  0  0  0  0  0  0  0  0  0  0
    4.1654   -3.1651   -4.0033 N   0  0  0  0  0  0  0  0  0  0  0  0
   -0.2744   -5.7971   -0.7539 N   0  0  0  0  0  0  0  0  0  0  0  0
   -1.4051    4.8128    0.5204 N   0  0  0  0  0  0  0  0  0  0  0  0
    3.1486    0.2206   -1.7912 O   0  0  0  0  0  0  0  0  0  0  0  0
   -2.5797   -2.3731   -1.4627 O   0  0  0  0  0  0  0  0  0  0  0  0
    2.1853   -1.1590   -0.1695 O   0  0  0  0  0  0  0  0  0  0  0  0
   -1.9816   -1.5878    0.6115 O   0  0  0  0  0  0  0  0  0  0  0  0
   -0.4231   -0.0878   -0.9077 O   0  0  0  0  0  0  0  0  0  0  0  0
    0.1235    6.0786    1.3177 H   0  0  0  0  0  0  0  0  0  0  0  0
   -1.0173    6.8589    0.2122 H   0  0  0  0  0  0  0  0  0  0  0  0
   -1.5322    6.4579    1.8421 H   0  0  0  0  0  0  0  0  0  0  0  0
    2.4275   -5.4705   -2.2356 H   0  0  0  0  0  0  0  0  0  0  0  0
    0.6093   -5.1584    2.4507 H   0  0  0  0  0  0  0  0  0  0  0  0
    1.9289   -3.4810   -0.8447 H   0  0  0  0  0  0  0  0  0  0  0  0
   -0.7136   -3.1015    2.0099 H   0  0  0  0  0  0  0  0  0  0  0  0
    2.2591    2.2105    2.9291 H   0  0  0  0  0  0  0  0  0  0  0  0
   -3.1707    1.9324    2.9395 H   0  0  0  0  0  0  0  0  0  0  0  0
    3.2795    0.2446    1.8082 H   0  0  0  0  0  0  0  0  0  0  0  0
   -3.3842   -0.4010    2.3957 H   0  0  0  0  0  0  0  0  0  0  0  0
   -2.0491    3.1807   -1.7242 H   0  0  0  0  0  0  0  0  0  0  0  0
   -0.3896    2.6285   -1.9108 H   0  0  0  0  0  0  0  0  0  0  0  0
    3.8774   -5.1930   -4.2531 H   0  0  0  0  0  0  0  0  0  0  0  0
    0.8435   -6.8489    0.6255 H   0  0  0  0  0  0  0  0  0  0  0  0
    0.4545    4.2570   -0.3459 H   0  0  0  0  0  0  0  0  0  0  0  0
   -0.6543    5.0819   -1.4290 H   0  0  0  0  0  0  0  0  0  0  0  0
   -0.5082    3.0143    3.3312 H   0  0  0  0  0  0  0  0  0  0  0  0
    0.4348    4.2207    2.4722 H   0  0  0  0  0  0  0  0  0  0  0  0
    4.2970   -1.1483   -3.5900 H   0  0  0  0  0  0  0  0  0  0  0  0
   -1.4414   -4.6010   -1.9686 H   0  0  0  0  0  0  0  0  0  0  0  0
   -3.2195    2.9745    0.4693 H   0  0  0  0  0  0  0  0  0  0  0  0
   -2.2134    4.2499    2.3613 H   0  0  0  0  0  0  0  0  0  0  0  0
   -3.5652   -0.5039   -0.1831 H   0  0  0  0  0  0  0  0  0  0  0  0
   -2.2367    0.6594   -1.5787 H   0  0  0  0  0  0  0  0  0  0  0  0
  1 32  1  0
  2  4  2  0
  2 11  1  0
  3  5  2  0
  3 12  1  0
  4 18  1  0
  5 19  1  0
  6  8  2  0
  6 17  1  0
  7  9  2  0
  7 20  1  0
  8 22  1  0
  9 23  1  0
 10 13  1  0
 10 29  1  0
 11 30  2  0
 12 31  2  0
 13 32  1  0
 14 17  1  0
 14 21  1  0
 15 18  2  0
 15 30  1  0
 16 19  2  0
 16 31  1  0
 17 24  2  0
 18 27  1  0
 19 28  1  0
 20 21  1  0
 20 29  1  0
 21 32  1  0
 22 25  2  0
 22 35  1  0
 23 26  1  0
 23 36  1  0
 24 25  1  0
 24 29  1  0
 25 37  1  0
 26 29  1  0
 26 37  1  0
 27 33  2  0
 27 35  1  0
 28 34  2  0
 28 36  1  0
  1 38  1  0
  1 39  1  0
  1 40  1  0
  2 41  1  0
  3 42  1  0
  4 43  1  0
  5 44  1  0
  6 45  1  0
  7 46  1  0
  8 47  1  0
  9 48  1  0
 10 49  1  0
 10 50  1  0
 11 51  1  0
 12 52  1  0
 13 53  1  0
 13 54  1  0
 14 55  1  0
 14 56  1  0
 15 57  1  0
 16 58  1  0
 20 59  1  0
 21 60  1  0
 23 61  1  0
 26 62  1  0
M  END
