
     RDKit          3D

 16 15  0  0  0  0  0  0  0  0999 V2000
   -0.4667   -0.5484   -0.3715 C   0  0  0  0  0  0  0  0  0  0  0  0
    0.9966   -0.2292   -0.6760 C   0  0  0  0  0  0  0  0  0  0  0  0
   -1.2048    0.6486    0.2314 C   0  0  0  0  0  0  0  0  0  0  0  0
    1.8323   -0.0981    0.5687 C   0  0  0  0  0  0  0  0  0  0  0  0
   -2.6047    0.3257    0.4838 N   0  0  0  0  0  0  0  0  0  0  0  0
    1.5412   -0.4540    1.6969 O   0  0  0  0  0  0  0  0  0  0  0  0
    3.0307    0.4611    0.3129 O   0  0  0  0  0  0  0  0  0  0  0  0
   -0.5319   -1.4099    0.3050 H   0  0  0  0  0  0  0  0  0  0  0  0
   -0.9580   -0.8405   -1.3084 H   0  0  0  0  0  0  0  0  0  0  0  0
    1.4266   -1.0404   -1.2739 H   0  0  0  0  0  0  0  0  0  0  0  0
    1.0629    0.7007   -1.2516 H   0  0  0  0  0  0  0  0  0  0  0  0
   -1.1590    1.5024   -0.4533 H   0  0  0  0  0  0  0  0  0  0  0  0
   -0.7420    0.9621    1.1724 H   0  0  0  0  0  0  0  0  0  0  0  0
   -3.0421   -0.0182   -0.3700 H   0  0  0  0  0  0  0  0  0  0  0  0
   -2.6592   -0.4401    1.1557 H   0  0  0  0  0  0  0  0  0  0  0  0
    3.4782    0.4783    1.1852 H   0  0  0  0  0  0  0  0  0  0  0  0
  1  2  1  0
  1  3  1  0
  2  4  1  0
  3  5  1  0
  4  6  2  0
  4  7  1  0
  1  8  1  0
  1  9  1  0
  2 10  1  0
  2 11  1  0
  3 12  1  0
  3 13  1  0
  5 14  1  0
  5 15  1  0
  7 16  1  0
M  END
