
     RDKit          3D

  5  4  0  0  0  0  0  0  0  0999 V2000
   -0.0009    0.0017    0.1158 C   0  0  0  0  0  0  0  0  0  0  0  0
    1.4950   -0.7828   -0.4189 Cl  0  0  0  0  0  0  0  0  0  0  0  0
   -1.4150   -0.9102   -0.4387 Cl  0  0  0  0  0  0  0  0  0  0  0  0
   -0.0701    1.6734   -0.4669 Cl  0  0  0  0  0  0  0  0  0  0  0  0
   -0.0090    0.0179    1.2087 H   0  0  0  0  0  0  0  0  0  0  0  0
  1  2  1  0
  1  3  1  0
  1  4  1  0
  1  5  1  0
M  END
