
     RDKit          3D

 25 26  0  0  0  0  0  0  0  0999 V2000
   -2.1305   -1.6248   -1.3321 C   0  0  0  0  0  0  0  0  0  0  0  0
    3.2068   -0.7281    0.6054 C   0  0  0  0  0  0  0  0  0  0  0  0
    1.8557   -1.0879    0.5906 C   0  0  0  0  0  0  0  0  0  0  0  0
    3.5731    0.6064    0.4488 C   0  0  0  0  0  0  0  0  0  0  0  0
    1.2395    1.2238    0.2633 C   0  0  0  0  0  0  0  0  0  0  0  0
   -1.2548   -0.4200   -1.0074 C   0  0  0  0  0  0  0  0  0  0  0  0
    0.8535   -0.1164    0.4219 C   0  0  0  0  0  0  0  0  0  0  0  0
    2.5872    1.5700    0.2797 C   0  0  0  0  0  0  0  0  0  0  0  0
   -0.6043   -0.5319    0.3893 C   0  0  0  0  0  0  0  0  0  0  0  0
   -2.2504    1.0273    0.4694 C   0  0  0  0  0  0  0  0  0  0  0  0
    2.9405    2.8528    0.1260 F   0  0  0  0  0  0  0  0  0  0  0  0
   -3.1181    1.7990    0.9967 N   0  0  0  0  0  0  0  0  0  0  0  0
   -2.0730    0.7556   -0.8400 N   0  0  0  0  0  0  0  0  0  0  0  0
   -1.3895    0.3283    1.2482 O   0  0  0  0  0  0  0  0  0  0  0  0
   -2.8951   -1.7903   -0.5647 H   0  0  0  0  0  0  0  0  0  0  0  0
   -2.6491   -1.4787   -2.2859 H   0  0  0  0  0  0  0  0  0  0  0  0
   -1.5238   -2.5327   -1.4100 H   0  0  0  0  0  0  0  0  0  0  0  0
    3.9719   -1.4885    0.7415 H   0  0  0  0  0  0  0  0  0  0  0  0
    1.5931   -2.1366    0.7182 H   0  0  0  0  0  0  0  0  0  0  0  0
    4.6171    0.9025    0.4593 H   0  0  0  0  0  0  0  0  0  0  0  0
    0.5014    2.0105    0.1295 H   0  0  0  0  0  0  0  0  0  0  0  0
   -0.5202   -0.2812   -1.8080 H   0  0  0  0  0  0  0  0  0  0  0  0
   -0.6973   -1.5489    0.7893 H   0  0  0  0  0  0  0  0  0  0  0  0
   -2.9648    1.7592    2.0103 H   0  0  0  0  0  0  0  0  0  0  0  0
   -2.8691    0.9305   -1.4393 H   0  0  0  0  0  0  0  0  0  0  0  0
  1  6  1  0
  2  3  2  0
  2  4  1  0
  3  7  1  0
  4  8  2  0
  5  7  2  0
  5  8  1  0
  6  9  1  0
  6 13  1  0
  7  9  1  0
  8 11  1  0
  9 14  1  0
 10 12  2  3
 10 13  1  0
 10 14  1  0
  1 15  1  0
  1 16  1  0
  1 17  1  0
  2 18  1  0
  3 19  1  0
  4 20  1  0
  5 21  1  0
  6 22  1  0
  9 23  1  0
 12 24  1  0
 13 25  1  0
M  END
