
     RDKit          3D

 31 32  0  0  0  0  0  0  0  0999 V2000
   -3.4475   -0.1897   -0.9056 C   0  0  0  0  0  0  0  0  0  0  0  0
    4.4875   -1.7468   -0.4833 C   0  0  0  0  0  0  0  0  0  0  0  0
    3.0417    0.6905   -0.4382 C   0  0  0  0  0  0  0  0  0  0  0  0
    2.2869    1.8710   -0.4076 C   0  0  0  0  0  0  0  0  0  0  0  0
   -2.0240   -0.1245    1.2116 C   0  0  0  0  0  0  0  0  0  0  0  0
    1.1450   -0.5931    0.3432 C   0  0  0  0  0  0  0  0  0  0  0  0
   -1.1784    2.2202    0.5786 C   0  0  0  0  0  0  0  0  0  0  0  0
   -2.6113   -1.0015    0.0846 C   0  0  0  0  0  0  0  0  0  0  0  0
   -0.9974    0.8599    0.7398 C   0  0  0  0  0  0  0  0  0  0  0  0
    2.4836   -0.5323   -0.0681 C   0  0  0  0  0  0  0  0  0  0  0  0
    0.3611    0.5786    0.3826 C   0  0  0  0  0  0  0  0  0  0  0  0
    0.9537    1.7827    0.0065 C   0  0  0  0  0  0  0  0  0  0  0  0
   -3.4661   -2.0624    0.6418 N   0  0  0  0  0  0  0  0  0  0  0  0
   -0.0030    2.7618    0.1333 N   0  0  0  0  0  0  0  0  0  0  0  0
    3.1302   -1.7400   -0.0606 O   0  0  0  0  0  0  0  0  0  0  0  0
   -3.8906   -0.8401   -1.6687 H   0  0  0  0  0  0  0  0  0  0  0  0
   -2.8328    0.5487   -1.4303 H   0  0  0  0  0  0  0  0  0  0  0  0
   -4.2623    0.3431   -0.4026 H   0  0  0  0  0  0  0  0  0  0  0  0
    4.8502   -2.7777   -0.4260 H   0  0  0  0  0  0  0  0  0  0  0  0
    4.5789   -1.4196   -1.5243 H   0  0  0  0  0  0  0  0  0  0  0  0
    5.1105   -1.1378    0.1799 H   0  0  0  0  0  0  0  0  0  0  0  0
    4.0753    0.7672   -0.7601 H   0  0  0  0  0  0  0  0  0  0  0  0
    2.7293    2.8188   -0.6966 H   0  0  0  0  0  0  0  0  0  0  0  0
   -1.5537   -0.7677    1.9678 H   0  0  0  0  0  0  0  0  0  0  0  0
   -2.8326    0.4090    1.7291 H   0  0  0  0  0  0  0  0  0  0  0  0
    0.7148   -1.5482    0.6298 H   0  0  0  0  0  0  0  0  0  0  0  0
   -2.0458    2.8466    0.7401 H   0  0  0  0  0  0  0  0  0  0  0  0
   -1.7992   -1.4878   -0.4683 H   0  0  0  0  0  0  0  0  0  0  0  0
   -4.2259   -1.6457    1.1786 H   0  0  0  0  0  0  0  0  0  0  0  0
   -2.9256   -2.6229    1.2999 H   0  0  0  0  0  0  0  0  0  0  0  0
    0.1474    3.7398   -0.0713 H   0  0  0  0  0  0  0  0  0  0  0  0
  1  8  1  0
  2 15  1  0
  3  4  2  0
  3 10  1  0
  4 12  1  0
  5  8  1  0
  5  9  1  0
  6 10  2  0
  6 11  1  0
  7  9  2  0
  7 14  1  0
  8 13  1  0
  9 11  1  0
 10 15  1  0
 11 12  2  0
 12 14  1  0
  1 16  1  0
  1 17  1  0
  1 18  1  0
  2 19  1  0
  2 20  1  0
  2 21  1  0
  3 22  1  0
  4 23  1  0
  5 24  1  0
  5 25  1  0
  6 26  1  0
  7 27  1  0
  8 28  1  0
 13 29  1  0
 13 30  1  0
 14 31  1  0
M  END
