
     RDKit          3D

 24 25  0  0  0  0  0  0  0  0999 V2000
    2.5187   -1.5836    1.9823 C   0  0  0  0  0  0  0  0  0  0  0  0
    2.8839   -0.3422    1.4545 C   0  0  0  0  0  0  0  0  0  0  0  0
    1.4740   -2.3097    1.3990 C   0  0  0  0  0  0  0  0  0  0  0  0
    2.2084    0.1741    0.3477 C   0  0  0  0  0  0  0  0  0  0  0  0
    0.7927   -1.7934    0.2946 C   0  0  0  0  0  0  0  0  0  0  0  0
   -3.0293    1.3423   -1.1145 C   0  0  0  0  0  0  0  0  0  0  0  0
   -2.5441    1.4929    0.3299 C   0  0  0  0  0  0  0  0  0  0  0  0
    0.3975    0.0306   -1.4172 C   0  0  0  0  0  0  0  0  0  0  0  0
    1.1548   -0.5462   -0.2410 C   0  0  0  0  0  0  0  0  0  0  0  0
   -0.9278    0.6526   -1.0305 C   0  0  0  0  0  0  0  0  0  0  0  0
   -1.9587    0.6070   -1.8448 N   0  0  0  0  0  0  0  0  0  0  0  0
   -1.1165    1.3015    0.1723 N   0  0  0  0  0  0  0  0  0  0  0  0
    3.0533   -1.9854    2.8400 H   0  0  0  0  0  0  0  0  0  0  0  0
    3.6958    0.2220    1.8986 H   0  0  0  0  0  0  0  0  0  0  0  0
    1.1970   -3.2841    1.7992 H   0  0  0  0  0  0  0  0  0  0  0  0
    2.4999    1.1441   -0.0579 H   0  0  0  0  0  0  0  0  0  0  0  0
   -0.0143   -2.3636   -0.1713 H   0  0  0  0  0  0  0  0  0  0  0  0
   -3.1639    2.3194   -1.5867 H   0  0  0  0  0  0  0  0  0  0  0  0
   -3.9731    0.7914   -1.1532 H   0  0  0  0  0  0  0  0  0  0  0  0
   -2.9705    0.7062    0.9662 H   0  0  0  0  0  0  0  0  0  0  0  0
   -2.7816    2.4740    0.7459 H   0  0  0  0  0  0  0  0  0  0  0  0
    0.9934    0.7992   -1.9230 H   0  0  0  0  0  0  0  0  0  0  0  0
    0.2234   -0.7581   -2.1571 H   0  0  0  0  0  0  0  0  0  0  0  0
   -0.6128    0.9088    0.9680 H   0  0  0  0  0  0  0  0  0  0  0  0
  1  2  2  0
  1  3  1  0
  2  4  1  0
  3  5  2  0
  4  9  2  0
  5  9  1  0
  6  7  1  0
  6 11  1  0
  7 12  1  0
  8  9  1  0
  8 10  1  0
 10 11  2  0
 10 12  1  0
  1 13  1  0
  2 14  1  0
  3 15  1  0
  4 16  1  0
  5 17  1  0
  6 18  1  0
  6 19  1  0
  7 20  1  0
  7 21  1  0
  8 22  1  0
  8 23  1  0
 12 24  1  0
M  END
