
     RDKit          3D

 23 23  0  0  0  0  0  0  0  0999 V2000
    4.3988    0.6071   -0.4338 C   0  0  0  0  0  0  0  0  0  0  0  0
   -4.3227    0.2330   -0.4778 C   0  0  0  0  0  0  0  0  0  0  0  0
    2.9066    0.6547   -0.3690 C   0  0  0  0  0  0  0  0  0  0  0  0
    2.1432   -0.3979   -0.0351 C   0  0  0  0  0  0  0  0  0  0  0  0
   -0.1071    0.3614   -0.8623 C   0  0  0  0  0  0  0  0  0  0  0  0
    0.0322   -1.1299    1.0205 C   0  0  0  0  0  0  0  0  0  0  0  0
   -1.5058    0.3455   -0.7773 C   0  0  0  0  0  0  0  0  0  0  0  0
   -1.3635   -1.1445    1.1053 C   0  0  0  0  0  0  0  0  0  0  0  0
    0.6763   -0.3646    0.0429 C   0  0  0  0  0  0  0  0  0  0  0  0
   -2.1400   -0.4066    0.2104 C   0  0  0  0  0  0  0  0  0  0  0  0
   -3.4897   -0.5094    0.4036 O   0  0  0  0  0  0  0  0  0  0  0  0
    4.7358    0.8652   -1.4423 H   0  0  0  0  0  0  0  0  0  0  0  0
    4.8252    1.3307    0.2676 H   0  0  0  0  0  0  0  0  0  0  0  0
    4.7936   -0.3830   -0.1850 H   0  0  0  0  0  0  0  0  0  0  0  0
   -5.3621    0.0509   -0.1881 H   0  0  0  0  0  0  0  0  0  0  0  0
   -4.1354    1.3081   -0.3869 H   0  0  0  0  0  0  0  0  0  0  0  0
   -4.2018   -0.1040   -1.5126 H   0  0  0  0  0  0  0  0  0  0  0  0
    2.4537    1.6165   -0.5969 H   0  0  0  0  0  0  0  0  0  0  0  0
    2.6077   -1.3479    0.2203 H   0  0  0  0  0  0  0  0  0  0  0  0
    0.3607    0.9411   -1.6544 H   0  0  0  0  0  0  0  0  0  0  0  0
    0.6083   -1.7156    1.7329 H   0  0  0  0  0  0  0  0  0  0  0  0
   -2.0651    0.9271   -1.5020 H   0  0  0  0  0  0  0  0  0  0  0  0
   -1.8487   -1.7380    1.8763 H   0  0  0  0  0  0  0  0  0  0  0  0
  1  3  1  0
  2 11  1  0
  3  4  2  3
  4  9  1  0
  5  7  2  0
  5  9  1  0
  6  8  1  0
  6  9  2  0
  7 10  1  0
  8 10  2  0
 10 11  1  0
  1 12  1  0
  1 13  1  0
  1 14  1  0
  2 15  1  0
  2 16  1  0
  2 17  1  0
  3 18  1  0
  4 19  1  0
  5 20  1  0
  6 21  1  0
  7 22  1  0
  8 23  1  0
M  END
