
     RDKit          3D

 24 25  0  0  0  0  0  0  0  0999 V2000
    3.2164    0.3740   -0.0650 C   0  0  0  0  0  0  0  0  0  0  0  0
    2.9791   -0.7932   -0.7847 C   0  0  0  0  0  0  0  0  0  0  0  0
    2.1468    1.0946    0.4656 C   0  0  0  0  0  0  0  0  0  0  0  0
    1.6724   -1.2434   -0.9694 C   0  0  0  0  0  0  0  0  0  0  0  0
   -0.3002    1.4488    0.8953 C   0  0  0  0  0  0  0  0  0  0  0  0
   -1.6786    1.0884    0.3413 C   0  0  0  0  0  0  0  0  0  0  0  0
   -0.8149   -1.0333   -0.6798 C   0  0  0  0  0  0  0  0  0  0  0  0
    0.8267    0.6577    0.2784 C   0  0  0  0  0  0  0  0  0  0  0  0
    0.5888   -0.5335   -0.4303 C   0  0  0  0  0  0  0  0  0  0  0  0
   -1.8473   -0.4306    0.2872 C   0  0  0  0  0  0  0  0  0  0  0  0
   -3.2101   -0.7712   -0.1344 N   0  0  0  0  0  0  0  0  0  0  0  0
    4.2342    0.7251    0.0820 H   0  0  0  0  0  0  0  0  0  0  0  0
    3.8108   -1.3527   -1.2041 H   0  0  0  0  0  0  0  0  0  0  0  0
    2.3474    2.0044    1.0273 H   0  0  0  0  0  0  0  0  0  0  0  0
    1.5004   -2.1535   -1.5399 H   0  0  0  0  0  0  0  0  0  0  0  0
   -0.1295    2.5211    0.7407 H   0  0  0  0  0  0  0  0  0  0  0  0
   -0.2886    1.2654    1.9772 H   0  0  0  0  0  0  0  0  0  0  0  0
   -1.7949    1.5158   -0.6639 H   0  0  0  0  0  0  0  0  0  0  0  0
   -2.4488    1.5474    0.9734 H   0  0  0  0  0  0  0  0  0  0  0  0
   -1.0774   -0.7830   -1.7165 H   0  0  0  0  0  0  0  0  0  0  0  0
   -0.8368   -2.1270   -0.5894 H   0  0  0  0  0  0  0  0  0  0  0  0
   -1.6872   -0.8441    1.2916 H   0  0  0  0  0  0  0  0  0  0  0  0
   -3.3291   -1.7836   -0.1179 H   0  0  0  0  0  0  0  0  0  0  0  0
   -3.8793   -0.3936    0.5354 H   0  0  0  0  0  0  0  0  0  0  0  0
  1  2  2  0
  1  3  1  0
  2  4  1  0
  3  8  2  0
  4  9  2  0
  5  6  1  0
  5  8  1  0
  6 10  1  0
  7  9  1  0
  7 10  1  0
  8  9  1  0
 10 11  1  0
  1 12  1  0
  2 13  1  0
  3 14  1  0
  4 15  1  0
  5 16  1  0
  5 17  1  0
  6 18  1  0
  6 19  1  0
  7 20  1  0
  7 21  1  0
 10 22  1  0
 11 23  1  0
 11 24  1  0
M  END
