
     RDKit          3D

 26 26  0  0  0  0  0  0  0  0999 V2000
   -0.9928   -1.8643   -0.3013 C   0  0  0  0  0  0  0  0  0  0  0  0
   -3.0647    0.3595   -0.1478 C   0  0  0  0  0  0  0  0  0  0  0  0
    3.5498    0.1544    0.5455 C   0  0  0  0  0  0  0  0  0  0  0  0
    2.6230   -0.1497    1.5397 C   0  0  0  0  0  0  0  0  0  0  0  0
    3.1303    0.2894   -0.7758 C   0  0  0  0  0  0  0  0  0  0  0  0
    1.2757   -0.3194    1.2137 C   0  0  0  0  0  0  0  0  0  0  0  0
    1.7835    0.1203   -1.1035 C   0  0  0  0  0  0  0  0  0  0  0  0
   -0.6266   -0.3852   -0.4981 C   0  0  0  0  0  0  0  0  0  0  0  0
   -1.6017    0.5766    0.2528 C   0  0  0  0  0  0  0  0  0  0  0  0
    0.8368   -0.1844   -0.1126 C   0  0  0  0  0  0  0  0  0  0  0  0
   -1.2648    1.9855   -0.0009 N   0  0  0  0  0  0  0  0  0  0  0  0
   -1.9591   -2.0982   -0.7588 H   0  0  0  0  0  0  0  0  0  0  0  0
   -1.0484   -2.1287    0.7604 H   0  0  0  0  0  0  0  0  0  0  0  0
   -0.2501   -2.5203   -0.7702 H   0  0  0  0  0  0  0  0  0  0  0  0
   -3.7193    1.0949    0.3345 H   0  0  0  0  0  0  0  0  0  0  0  0
   -3.4194   -0.6273    0.1652 H   0  0  0  0  0  0  0  0  0  0  0  0
   -3.2009    0.4465   -1.2314 H   0  0  0  0  0  0  0  0  0  0  0  0
    4.5972    0.2889    0.8006 H   0  0  0  0  0  0  0  0  0  0  0  0
    2.9474   -0.2524    2.5717 H   0  0  0  0  0  0  0  0  0  0  0  0
    3.8510    0.5292   -1.5527 H   0  0  0  0  0  0  0  0  0  0  0  0
    0.5710   -0.5553    2.0068 H   0  0  0  0  0  0  0  0  0  0  0  0
    1.4771    0.2317   -2.1407 H   0  0  0  0  0  0  0  0  0  0  0  0
   -0.7252   -0.1790   -1.5737 H   0  0  0  0  0  0  0  0  0  0  0  0
   -1.5217    0.4104    1.3335 H   0  0  0  0  0  0  0  0  0  0  0  0
   -1.3006    2.1800   -0.9999 H   0  0  0  0  0  0  0  0  0  0  0  0
   -1.9476    2.5967    0.4428 H   0  0  0  0  0  0  0  0  0  0  0  0
  1  8  1  0
  2  9  1  0
  3  4  2  0
  3  5  1  0
  4  6  1  0
  5  7  2  0
  6 10  2  0
  7 10  1  0
  8  9  1  0
  8 10  1  0
  9 11  1  0
  1 12  1  0
  1 13  1  0
  1 14  1  0
  2 15  1  0
  2 16  1  0
  2 17  1  0
  3 18  1  0
  4 19  1  0
  5 20  1  0
  6 21  1  0
  7 22  1  0
  8 23  1  0
  9 24  1  0
 11 25  1  0
 11 26  1  0
M  END
