
     RDKit          3D

 28 29  0  0  0  0  0  0  0  0999 V2000
   -0.4651    1.9713    1.3222 C   0  0  0  0  0  0  0  0  0  0  0  0
   -2.5719   -3.3841    0.4368 C   0  0  0  0  0  0  0  0  0  0  0  0
   -1.2800   -3.3141   -0.0830 C   0  0  0  0  0  0  0  0  0  0  0  0
   -3.2983   -2.2128    0.6462 C   0  0  0  0  0  0  0  0  0  0  0  0
    3.4594    1.5894   -0.6787 C   0  0  0  0  0  0  0  0  0  0  0  0
    2.6430    1.6667   -1.9737 C   0  0  0  0  0  0  0  0  0  0  0  0
    0.0822    0.7677    0.5660 C   0  0  0  0  0  0  0  0  0  0  0  0
   -0.7065   -2.0730   -0.3772 C   0  0  0  0  0  0  0  0  0  0  0  0
   -2.7266   -0.9702    0.3564 C   0  0  0  0  0  0  0  0  0  0  0  0
   -1.4131   -0.8882   -0.1245 C   0  0  0  0  0  0  0  0  0  0  0  0
    1.3461    1.1978   -0.1710 C   0  0  0  0  0  0  0  0  0  0  0  0
    0.8639   -2.0664   -1.0968 Cl  0  0  0  0  0  0  0  0  0  0  0  0
   -3.6975    0.4388    0.5878 Cl  0  0  0  0  0  0  0  0  0  0  0  0
    2.5320    1.0850    0.3758 N   0  0  0  0  0  0  0  0  0  0  0  0
    1.3016    1.7139   -1.4464 N   0  0  0  0  0  0  0  0  0  0  0  0
   -0.8793    0.3431   -0.4177 O   0  0  0  0  0  0  0  0  0  0  0  0
    0.2963    2.4088    1.9766 H   0  0  0  0  0  0  0  0  0  0  0  0
   -1.3204    1.6831    1.9398 H   0  0  0  0  0  0  0  0  0  0  0  0
   -0.8123    2.7489    0.6324 H   0  0  0  0  0  0  0  0  0  0  0  0
   -3.0206   -4.3504    0.6576 H   0  0  0  0  0  0  0  0  0  0  0  0
   -0.7274   -4.2321   -0.2710 H   0  0  0  0  0  0  0  0  0  0  0  0
   -4.3154   -2.2735    1.0265 H   0  0  0  0  0  0  0  0  0  0  0  0
    3.8239    2.5793   -0.3821 H   0  0  0  0  0  0  0  0  0  0  0  0
    4.3189    0.9208   -0.7876 H   0  0  0  0  0  0  0  0  0  0  0  0
    2.8896    2.5488   -2.5696 H   0  0  0  0  0  0  0  0  0  0  0  0
    2.7835    0.7641   -2.5775 H   0  0  0  0  0  0  0  0  0  0  0  0
    0.3487   -0.0255    1.2776 H   0  0  0  0  0  0  0  0  0  0  0  0
    0.5450    1.3629   -2.0262 H   0  0  0  0  0  0  0  0  0  0  0  0
  1  7  1  0
  2  3  2  0
  2  4  1  0
  3  8  1  0
  4  9  2  0
  5  6  1  0
  5 14  1  0
  6 15  1  0
  7 11  1  0
  7 16  1  0
  8 10  2  0
  8 12  1  0
  9 10  1  0
  9 13  1  0
 10 16  1  0
 11 14  2  0
 11 15  1  0
  1 17  1  0
  1 18  1  0
  1 19  1  0
  2 20  1  0
  3 21  1  0
  4 22  1  0
  5 23  1  0
  5 24  1  0
  6 25  1  0
  6 26  1  0
  7 27  1  0
 15 28  1  0
M  END
