
     RDKit          3D

 27 28  0  0  0  0  0  0  0  0999 V2000
   -3.0329    1.5438    1.0131 C   0  0  0  0  0  0  0  0  0  0  0  0
    3.8148   -0.6159    0.6423 C   0  0  0  0  0  0  0  0  0  0  0  0
    3.2700   -1.3863   -0.3879 C   0  0  0  0  0  0  0  0  0  0  0  0
   -1.2181    0.8695   -0.6036 C   0  0  0  0  0  0  0  0  0  0  0  0
    1.7739    0.6943    0.8170 C   0  0  0  0  0  0  0  0  0  0  0  0
   -0.0341   -1.0547   -1.8338 C   0  0  0  0  0  0  0  0  0  0  0  0
   -2.1236    0.4012    0.5573 C   0  0  0  0  0  0  0  0  0  0  0  0
   -0.0699   -0.0545   -0.8819 C   0  0  0  0  0  0  0  0  0  0  0  0
    3.0741    0.4025    1.2279 C   0  0  0  0  0  0  0  0  0  0  0  0
    1.2015   -0.0676   -0.2210 C   0  0  0  0  0  0  0  0  0  0  0  0
    1.9632   -1.0873   -0.7964 C   0  0  0  0  0  0  0  0  0  0  0  0
    3.6230    1.1248    2.2148 F   0  0  0  0  0  0  0  0  0  0  0  0
   -2.9584   -0.7474    0.1764 N   0  0  0  0  0  0  0  0  0  0  0  0
    1.1844   -1.6722   -1.7676 N   0  0  0  0  0  0  0  0  0  0  0  0
   -3.6693    1.2320    1.8488 H   0  0  0  0  0  0  0  0  0  0  0  0
   -3.6834    1.8882    0.2012 H   0  0  0  0  0  0  0  0  0  0  0  0
   -2.4382    2.3982    1.3541 H   0  0  0  0  0  0  0  0  0  0  0  0
    4.8236   -0.8086    0.9948 H   0  0  0  0  0  0  0  0  0  0  0  0
    3.8414   -2.1850   -0.8492 H   0  0  0  0  0  0  0  0  0  0  0  0
   -0.8081    1.8609   -0.3693 H   0  0  0  0  0  0  0  0  0  0  0  0
   -1.8135    1.0026   -1.5169 H   0  0  0  0  0  0  0  0  0  0  0  0
    1.2248    1.4957    1.2979 H   0  0  0  0  0  0  0  0  0  0  0  0
   -0.7836   -1.3869   -2.5397 H   0  0  0  0  0  0  0  0  0  0  0  0
   -1.5005    0.0978    1.4072 H   0  0  0  0  0  0  0  0  0  0  0  0
   -3.5713   -0.4908   -0.5954 H   0  0  0  0  0  0  0  0  0  0  0  0
   -3.5633   -1.0051    0.9545 H   0  0  0  0  0  0  0  0  0  0  0  0
    1.4738   -2.4493   -2.3447 H   0  0  0  0  0  0  0  0  0  0  0  0
  1  7  1  0
  2  3  2  0
  2  9  1  0
  3 11  1  0
  4  7  1  0
  4  8  1  0
  5  9  2  0
  5 10  1  0
  6  8  2  0
  6 14  1  0
  7 13  1  0
  8 10  1  0
  9 12  1  0
 10 11  2  0
 11 14  1  0
  1 15  1  0
  1 16  1  0
  1 17  1  0
  2 18  1  0
  3 19  1  0
  4 20  1  0
  4 21  1  0
  5 22  1  0
  6 23  1  0
  7 24  1  0
 13 25  1  0
 13 26  1  0
 14 27  1  0
M  END
