
     RDKit          3D

 26 27  0  0  0  0  0  0  0  0999 V2000
   -3.9041   -0.6856    0.4993 C   0  0  0  0  0  0  0  0  0  0  0  0
    4.2286    0.7575    0.4528 C   0  0  0  0  0  0  0  0  0  0  0  0
    4.2005   -0.5438    0.9621 C   0  0  0  0  0  0  0  0  0  0  0  0
    3.0751    1.3497   -0.0827 C   0  0  0  0  0  0  0  0  0  0  0  0
    3.0221   -1.2978    0.9549 C   0  0  0  0  0  0  0  0  0  0  0  0
   -1.5752   -0.7247   -0.4701 C   0  0  0  0  0  0  0  0  0  0  0  0
    0.5503    0.8336   -0.5361 C   0  0  0  0  0  0  0  0  0  0  0  0
   -2.5547    0.0334    0.4492 C   0  0  0  0  0  0  0  0  0  0  0  0
    1.8812    0.6073   -0.0996 C   0  0  0  0  0  0  0  0  0  0  0  0
   -0.1593   -0.3173   -0.2592 C   0  0  0  0  0  0  0  0  0  0  0  0
    1.8940   -0.6827    0.4171 C   0  0  0  0  0  0  0  0  0  0  0  0
   -2.7711    1.4167   -0.0049 N   0  0  0  0  0  0  0  0  0  0  0  0
    0.6576   -1.2447    0.3201 O   0  0  0  0  0  0  0  0  0  0  0  0
   -3.7855   -1.7031    0.8870 H   0  0  0  0  0  0  0  0  0  0  0  0
   -4.6054   -0.1622    1.1588 H   0  0  0  0  0  0  0  0  0  0  0  0
   -4.3601   -0.7547   -0.4948 H   0  0  0  0  0  0  0  0  0  0  0  0
    5.1585    1.3218    0.4717 H   0  0  0  0  0  0  0  0  0  0  0  0
    5.1092   -0.9793    1.3720 H   0  0  0  0  0  0  0  0  0  0  0  0
    3.1062    2.3614   -0.4750 H   0  0  0  0  0  0  0  0  0  0  0  0
    2.9805   -2.3068    1.3455 H   0  0  0  0  0  0  0  0  0  0  0  0
   -1.6603   -1.8030   -0.2824 H   0  0  0  0  0  0  0  0  0  0  0  0
   -1.8441   -0.5769   -1.5239 H   0  0  0  0  0  0  0  0  0  0  0  0
    0.1477    1.7289   -0.9883 H   0  0  0  0  0  0  0  0  0  0  0  0
   -2.1463    0.0706    1.4667 H   0  0  0  0  0  0  0  0  0  0  0  0
   -3.4064    1.8876    0.6391 H   0  0  0  0  0  0  0  0  0  0  0  0
   -3.2391    1.4143   -0.9106 H   0  0  0  0  0  0  0  0  0  0  0  0
  1  8  1  0
  2  3  2  0
  2  4  1  0
  3  5  1  0
  4  9  2  0
  5 11  2  0
  6  8  1  0
  6 10  1  0
  7  9  1  0
  7 10  2  0
  8 12  1  0
  9 11  1  0
 10 13  1  0
 11 13  1  0
  1 14  1  0
  1 15  1  0
  1 16  1  0
  2 17  1  0
  3 18  1  0
  4 19  1  0
  5 20  1  0
  6 21  1  0
  6 22  1  0
  7 23  1  0
  8 24  1  0
 12 25  1  0
 12 26  1  0
M  END
