
     RDKit          3D

 28 29  0  0  0  0  0  0  0  0999 V2000
   -2.8926   -1.4393    1.0381 C   0  0  0  0  0  0  0  0  0  0  0  0
   -1.7521   -1.3298    0.0349 C   0  0  0  0  0  0  0  0  0  0  0  0
    3.8095   -0.2562    0.9848 C   0  0  0  0  0  0  0  0  0  0  0  0
    3.1966   -1.3501    0.3778 C   0  0  0  0  0  0  0  0  0  0  0  0
    3.2015    0.9961    0.9368 C   0  0  0  0  0  0  0  0  0  0  0  0
    1.9734   -1.1928   -0.2766 C   0  0  0  0  0  0  0  0  0  0  0  0
    1.9782    1.1553    0.2836 C   0  0  0  0  0  0  0  0  0  0  0  0
    1.3487    0.0630   -0.3329 C   0  0  0  0  0  0  0  0  0  0  0  0
   -1.1812    0.0837   -0.0440 C   0  0  0  0  0  0  0  0  0  0  0  0
    0.0066    0.2075   -1.0162 C   0  0  0  0  0  0  0  0  0  0  0  0
   -1.4340    1.9110   -1.3965 C   0  0  0  0  0  0  0  0  0  0  0  0
   -1.8510    3.0275   -1.8523 N   0  0  0  0  0  0  0  0  0  0  0  0
   -2.1194    1.0100   -0.6503 N   0  0  0  0  0  0  0  0  0  0  0  0
   -0.1504    1.5186   -1.5982 O   0  0  0  0  0  0  0  0  0  0  0  0
   -3.2467   -2.4735    1.0940 H   0  0  0  0  0  0  0  0  0  0  0  0
   -3.7400   -0.8098    0.7495 H   0  0  0  0  0  0  0  0  0  0  0  0
   -2.5647   -1.1392    2.0385 H   0  0  0  0  0  0  0  0  0  0  0  0
   -2.1146   -1.6525   -0.9488 H   0  0  0  0  0  0  0  0  0  0  0  0
   -0.9625   -2.0292    0.3322 H   0  0  0  0  0  0  0  0  0  0  0  0
    4.7641   -0.3777    1.4900 H   0  0  0  0  0  0  0  0  0  0  0  0
    3.6746   -2.3259    0.4103 H   0  0  0  0  0  0  0  0  0  0  0  0
    3.6818    1.8527    1.4029 H   0  0  0  0  0  0  0  0  0  0  0  0
    1.5153   -2.0596   -0.7484 H   0  0  0  0  0  0  0  0  0  0  0  0
    1.5225    2.1439    0.2498 H   0  0  0  0  0  0  0  0  0  0  0  0
   -0.9160    0.4491    0.9565 H   0  0  0  0  0  0  0  0  0  0  0  0
   -0.0643   -0.5064   -1.8473 H   0  0  0  0  0  0  0  0  0  0  0  0
   -2.8360    3.1376   -1.6105 H   0  0  0  0  0  0  0  0  0  0  0  0
   -2.8473    1.3861   -0.0576 H   0  0  0  0  0  0  0  0  0  0  0  0
  1  2  1  0
  2  9  1  0
  3  4  2  0
  3  5  1  0
  4  6  1  0
  5  7  2  0
  6  8  2  0
  7  8  1  0
  8 10  1  0
  9 10  1  0
  9 13  1  0
 10 14  1  0
 11 12  2  3
 11 13  1  0
 11 14  1  0
  1 15  1  0
  1 16  1  0
  1 17  1  0
  2 18  1  0
  2 19  1  0
  3 20  1  0
  4 21  1  0
  5 22  1  0
  6 23  1  0
  7 24  1  0
  9 25  1  0
 10 26  1  0
 12 27  1  0
 13 28  1  0
M  END
