
     RDKit          3D

 28 29  0  0  0  0  0  0  0  0999 V2000
    0.3408   -2.1876   -0.5341 C   0  0  0  0  0  0  0  0  0  0  0  0
    3.3496    1.3102    1.6946 C   0  0  0  0  0  0  0  0  0  0  0  0
   -3.7907    0.5644    0.1538 C   0  0  0  0  0  0  0  0  0  0  0  0
   -2.8099    0.6291    1.1408 C   0  0  0  0  0  0  0  0  0  0  0  0
   -3.4230    0.4479   -1.1846 C   0  0  0  0  0  0  0  0  0  0  0  0
   -1.4594    0.5757    0.7910 C   0  0  0  0  0  0  0  0  0  0  0  0
   -2.0731    0.3942   -1.5366 C   0  0  0  0  0  0  0  0  0  0  0  0
    0.9041   -1.0222   -1.3451 C   0  0  0  0  0  0  0  0  0  0  0  0
   -1.0731    0.4563   -0.5521 C   0  0  0  0  0  0  0  0  0  0  0  0
    0.3797    0.3763   -0.9610 C   0  0  0  0  0  0  0  0  0  0  0  0
    2.4330    0.0912   -0.0465 C   0  0  0  0  0  0  0  0  0  0  0  0
    3.4593    0.2470    0.7027 N   0  0  0  0  0  0  0  0  0  0  0  0
    2.3030   -0.8482   -1.0222 N   0  0  0  0  0  0  0  0  0  0  0  0
    1.2839    0.8185    0.0764 O   0  0  0  0  0  0  0  0  0  0  0  0
   -0.7173   -2.3521   -0.7600 H   0  0  0  0  0  0  0  0  0  0  0  0
    0.8771   -3.1131   -0.7725 H   0  0  0  0  0  0  0  0  0  0  0  0
    0.4412   -2.0232    0.5446 H   0  0  0  0  0  0  0  0  0  0  0  0
    3.1851    2.2854    1.2237 H   0  0  0  0  0  0  0  0  0  0  0  0
    2.5490    1.1059    2.4136 H   0  0  0  0  0  0  0  0  0  0  0  0
    4.2874    1.3712    2.2555 H   0  0  0  0  0  0  0  0  0  0  0  0
   -4.8415    0.6085    0.4282 H   0  0  0  0  0  0  0  0  0  0  0  0
   -3.0952    0.7235    2.1856 H   0  0  0  0  0  0  0  0  0  0  0  0
   -4.1887    0.4023   -1.9549 H   0  0  0  0  0  0  0  0  0  0  0  0
   -0.7099    0.6285    1.5787 H   0  0  0  0  0  0  0  0  0  0  0  0
   -1.8080    0.3083   -2.5885 H   0  0  0  0  0  0  0  0  0  0  0  0
    0.7615   -1.2168   -2.4133 H   0  0  0  0  0  0  0  0  0  0  0  0
    0.5344    1.0758   -1.7948 H   0  0  0  0  0  0  0  0  0  0  0  0
    2.9006   -1.6568   -0.9041 H   0  0  0  0  0  0  0  0  0  0  0  0
  1  8  1  0
  2 12  1  0
  3  4  2  0
  3  5  1  0
  4  6  1  0
  5  7  2  0
  6  9  2  0
  7  9  1  0
  8 10  1  0
  8 13  1  0
  9 10  1  0
 10 14  1  0
 11 12  2  3
 11 13  1  0
 11 14  1  0
  1 15  1  0
  1 16  1  0
  1 17  1  0
  2 18  1  0
  2 19  1  0
  2 20  1  0
  3 21  1  0
  4 22  1  0
  5 23  1  0
  6 24  1  0
  7 25  1  0
  8 26  1  0
 10 27  1  0
 13 28  1  0
M  END
