
     RDKit          3D

 32 32  0  0  0  0  0  0  0  0999 V2000
   -1.5447   -2.9777   -0.7966 C   0  0  0  0  0  0  0  0  0  0  0  0
   -2.1566    3.0524   -0.4092 C   0  0  0  0  0  0  0  0  0  0  0  0
   -3.7162   -0.3115    0.2407 C   0  0  0  0  0  0  0  0  0  0  0  0
    2.6641    0.3759    0.9545 C   0  0  0  0  0  0  0  0  0  0  0  0
    3.6560   -0.1167   -0.1072 C   0  0  0  0  0  0  0  0  0  0  0  0
    1.2207    0.2593    0.4915 C   0  0  0  0  0  0  0  0  0  0  0  0
    0.4801   -0.9299    0.6991 C   0  0  0  0  0  0  0  0  0  0  0  0
    0.5841    1.3204   -0.1962 C   0  0  0  0  0  0  0  0  0  0  0  0
   -0.8489   -1.0452    0.2447 C   0  0  0  0  0  0  0  0  0  0  0  0
   -0.7642    1.2190   -0.5911 C   0  0  0  0  0  0  0  0  0  0  0  0
   -1.4885    0.0451   -0.3558 C   0  0  0  0  0  0  0  0  0  0  0  0
    1.2611   -2.4436    1.5784 Br  0  0  0  0  0  0  0  0  0  0  0  0
    1.5251    2.9334   -0.6232 Br  0  0  0  0  0  0  0  0  0  0  0  0
    5.0306   -0.0390    0.3835 N   0  0  0  0  0  0  0  0  0  0  0  0
   -1.5229   -2.2310    0.4236 O   0  0  0  0  0  0  0  0  0  0  0  0
   -1.3526    2.2555   -1.2794 O   0  0  0  0  0  0  0  0  0  0  0  0
   -2.7872   -0.0066   -0.8005 O   0  0  0  0  0  0  0  0  0  0  0  0
   -1.9415   -3.9718   -0.5704 H   0  0  0  0  0  0  0  0  0  0  0  0
   -0.5385   -3.1014   -1.2128 H   0  0  0  0  0  0  0  0  0  0  0  0
   -2.2048   -2.5117   -1.5350 H   0  0  0  0  0  0  0  0  0  0  0  0
   -1.6473    3.2752    0.5354 H   0  0  0  0  0  0  0  0  0  0  0  0
   -2.3568    4.0011   -0.9162 H   0  0  0  0  0  0  0  0  0  0  0  0
   -3.1173    2.5673   -0.2141 H   0  0  0  0  0  0  0  0  0  0  0  0
   -3.3862    0.0491    1.2219 H   0  0  0  0  0  0  0  0  0  0  0  0
   -3.9133   -1.3867    0.2720 H   0  0  0  0  0  0  0  0  0  0  0  0
   -4.6586    0.1905    0.0004 H   0  0  0  0  0  0  0  0  0  0  0  0
    2.8948    1.4091    1.2388 H   0  0  0  0  0  0  0  0  0  0  0  0
    2.8059   -0.1720    1.8934 H   0  0  0  0  0  0  0  0  0  0  0  0
    3.5728    0.4883   -1.0164 H   0  0  0  0  0  0  0  0  0  0  0  0
    3.4388   -1.1517   -0.3929 H   0  0  0  0  0  0  0  0  0  0  0  0
    5.1472   -0.6671    1.1784 H   0  0  0  0  0  0  0  0  0  0  0  0
    5.6648   -0.3780   -0.3394 H   0  0  0  0  0  0  0  0  0  0  0  0
  1 15  1  0
  2 16  1  0
  3 17  1  0
  4  5  1  0
  4  6  1  0
  5 14  1  0
  6  7  2  0
  6  8  1  0
  7  9  1  0
  7 12  1  0
  8 10  2  0
  8 13  1  0
  9 11  2  0
  9 15  1  0
 10 11  1  0
 10 16  1  0
 11 17  1  0
  1 18  1  0
  1 19  1  0
  1 20  1  0
  2 21  1  0
  2 22  1  0
  2 23  1  0
  3 24  1  0
  3 25  1  0
  3 26  1  0
  4 27  1  0
  4 28  1  0
  5 29  1  0
  5 30  1  0
 14 31  1  0
 14 32  1  0
M  END
