
     RDKit          3D

 27 28  0  0  0  0  0  0  0  0999 V2000
    3.7188   -0.9966    0.1737 C   0  0  0  0  0  0  0  0  0  0  0  0
    3.3291   -0.0583    1.1263 C   0  0  0  0  0  0  0  0  0  0  0  0
    2.7877   -1.4859   -0.7391 C   0  0  0  0  0  0  0  0  0  0  0  0
    2.0081    0.3926    1.1657 C   0  0  0  0  0  0  0  0  0  0  0  0
    1.4665   -1.0358   -0.7009 C   0  0  0  0  0  0  0  0  0  0  0  0
   -0.8313    1.0518   -1.0057 C   0  0  0  0  0  0  0  0  0  0  0  0
   -1.3543   -0.6872    0.7650 C   0  0  0  0  0  0  0  0  0  0  0  0
   -2.2563    1.5978   -0.8718 C   0  0  0  0  0  0  0  0  0  0  0  0
   -2.6926   -0.6198    0.0272 C   0  0  0  0  0  0  0  0  0  0  0  0
    1.0593   -0.0879    0.2506 C   0  0  0  0  0  0  0  0  0  0  0  0
   -0.3724    0.4125    0.3118 C   0  0  0  0  0  0  0  0  0  0  0  0
   -3.1729    0.7533   -0.0983 N   0  0  0  0  0  0  0  0  0  0  0  0
    4.7468   -1.3473    0.1437 H   0  0  0  0  0  0  0  0  0  0  0  0
    4.0539    0.3235    1.8405 H   0  0  0  0  0  0  0  0  0  0  0  0
    3.0891   -2.2201   -1.4816 H   0  0  0  0  0  0  0  0  0  0  0  0
    1.7261    1.1246    1.9192 H   0  0  0  0  0  0  0  0  0  0  0  0
    0.7558   -1.4370   -1.4197 H   0  0  0  0  0  0  0  0  0  0  0  0
   -0.1545    1.8649   -1.2962 H   0  0  0  0  0  0  0  0  0  0  0  0
   -0.8022    0.3190   -1.8223 H   0  0  0  0  0  0  0  0  0  0  0  0
   -0.9374   -1.6927    0.6299 H   0  0  0  0  0  0  0  0  0  0  0  0
   -1.5238   -0.5780    1.8447 H   0  0  0  0  0  0  0  0  0  0  0  0
   -2.2226    2.5879   -0.4014 H   0  0  0  0  0  0  0  0  0  0  0  0
   -2.6748    1.7501   -1.8732 H   0  0  0  0  0  0  0  0  0  0  0  0
   -2.6088   -1.0788   -0.9657 H   0  0  0  0  0  0  0  0  0  0  0  0
   -3.4363   -1.2117    0.5725 H   0  0  0  0  0  0  0  0  0  0  0  0
   -0.4150    1.2082    1.0704 H   0  0  0  0  0  0  0  0  0  0  0  0
   -3.2860    1.1507    0.8348 H   0  0  0  0  0  0  0  0  0  0  0  0
  1  2  2  0
  1  3  1  0
  2  4  1  0
  3  5  2  0
  4 10  2  0
  5 10  1  0
  6  8  1  0
  6 11  1  0
  7  9  1  0
  7 11  1  0
  8 12  1  0
  9 12  1  0
 10 11  1  0
  1 13  1  0
  2 14  1  0
  3 15  1  0
  4 16  1  0
  5 17  1  0
  6 18  1  0
  6 19  1  0
  7 20  1  0
  7 21  1  0
  8 22  1  0
  8 23  1  0
  9 24  1  0
  9 25  1  0
 11 26  1  0
 12 27  1  0
M  END
