
     RDKit          3D

 29 30  0  0  0  0  0  0  0  0999 V2000
   -2.6060   -2.9783    1.3198 C   0  0  0  0  0  0  0  0  0  0  0  0
    0.5456    3.1118   -1.3629 C   0  0  0  0  0  0  0  0  0  0  0  0
    1.7209   -0.9838   -0.8426 C   0  0  0  0  0  0  0  0  0  0  0  0
    2.7842   -0.8384    0.2566 C   0  0  0  0  0  0  0  0  0  0  0  0
   -0.5935   -1.3172    0.1532 C   0  0  0  0  0  0  0  0  0  0  0  0
   -2.4602    1.8137    0.1849 C   0  0  0  0  0  0  0  0  0  0  0  0
    0.3687   -0.4242   -0.4397 C   0  0  0  0  0  0  0  0  0  0  0  0
   -2.0669    0.4325    0.3427 C   0  0  0  0  0  0  0  0  0  0  0  0
   -1.1763    1.2778   -0.2064 C   0  0  0  0  0  0  0  0  0  0  0  0
   -1.8593   -0.8739    0.5582 C   0  0  0  0  0  0  0  0  0  0  0  0
    0.0541    0.9376   -0.6190 C   0  0  0  0  0  0  0  0  0  0  0  0
    3.4123    0.4817    0.2662 N   0  0  0  0  0  0  0  0  0  0  0  0
   -2.8566   -1.5926    1.1240 O   0  0  0  0  0  0  0  0  0  0  0  0
    0.9796    1.7698   -1.1582 O   0  0  0  0  0  0  0  0  0  0  0  0
   -2.4298   -3.4867    0.3659 H   0  0  0  0  0  0  0  0  0  0  0  0
   -1.7700   -3.1343    2.0098 H   0  0  0  0  0  0  0  0  0  0  0  0
   -3.4990   -3.4195    1.7729 H   0  0  0  0  0  0  0  0  0  0  0  0
    0.3037    3.5978   -0.4115 H   0  0  0  0  0  0  0  0  0  0  0  0
   -0.3048    3.1523   -2.0523 H   0  0  0  0  0  0  0  0  0  0  0  0
    1.3729    3.6637   -1.8193 H   0  0  0  0  0  0  0  0  0  0  0  0
    2.0569   -0.5286   -1.7829 H   0  0  0  0  0  0  0  0  0  0  0  0
    1.5999   -2.0510   -1.0712 H   0  0  0  0  0  0  0  0  0  0  0  0
    2.3492   -1.0448    1.2412 H   0  0  0  0  0  0  0  0  0  0  0  0
    3.5753   -1.5767    0.0870 H   0  0  0  0  0  0  0  0  0  0  0  0
   -0.3091   -2.3583    0.2800 H   0  0  0  0  0  0  0  0  0  0  0  0
   -2.5339    2.4480    1.0608 H   0  0  0  0  0  0  0  0  0  0  0  0
   -3.1879    2.0746   -0.5750 H   0  0  0  0  0  0  0  0  0  0  0  0
    2.6901    1.1957    0.1435 H   0  0  0  0  0  0  0  0  0  0  0  0
    3.8399    0.6513    1.1741 H   0  0  0  0  0  0  0  0  0  0  0  0
  1 13  1  0
  2 14  1  0
  3  4  1  0
  3  7  1  0
  4 12  1  0
  5  7  2  0
  5 10  1  0
  6  8  1  0
  6  9  1  0
  7 11  1  0
  8  9  1  0
  8 10  2  0
  9 11  2  0
 10 13  1  0
 11 14  1  0
  1 15  1  0
  1 16  1  0
  1 17  1  0
  2 18  1  0
  2 19  1  0
  2 20  1  0
  3 21  1  0
  3 22  1  0
  4 23  1  0
  4 24  1  0
  5 25  1  0
  6 26  1  0
  6 27  1  0
 12 28  1  0
 12 29  1  0
M  END
