
     RDKit          3D

 31 31  0  0  0  0  0  0  0  0999 V2000
    3.9053    0.1811   -0.4366 C   0  0  0  0  0  0  0  0  0  0  0  0
   -1.6346   -3.7210   -0.8794 C   0  0  0  0  0  0  0  0  0  0  0  0
   -2.4385    3.2003    1.0702 C   0  0  0  0  0  0  0  0  0  0  0  0
    1.4465    0.4383   -0.9290 C   0  0  0  0  0  0  0  0  0  0  0  0
   -0.5015   -1.1471   -0.6166 C   0  0  0  0  0  0  0  0  0  0  0  0
   -0.7799    1.1741    0.0185 C   0  0  0  0  0  0  0  0  0  0  0  0
    2.4945    0.0481    0.1350 C   0  0  0  0  0  0  0  0  0  0  0  0
    0.0212    0.1495   -0.5065 C   0  0  0  0  0  0  0  0  0  0  0  0
   -1.8111   -1.4278   -0.2138 C   0  0  0  0  0  0  0  0  0  0  0  0
   -2.0911    0.9198    0.4318 C   0  0  0  0  0  0  0  0  0  0  0  0
   -2.6010   -0.3872    0.3126 C   0  0  0  0  0  0  0  0  0  0  0  0
   -4.3938   -0.7555    0.8749 Br  0  0  0  0  0  0  0  0  0  0  0  0
    2.3928    0.8931    1.3311 N   0  0  0  0  0  0  0  0  0  0  0  0
   -2.3877   -2.6701   -0.2903 O   0  0  0  0  0  0  0  0  0  0  0  0
   -2.9276    1.8706    0.9589 O   0  0  0  0  0  0  0  0  0  0  0  0
    4.6595   -0.1155    0.3010 H   0  0  0  0  0  0  0  0  0  0  0  0
    4.1192    1.2108   -0.7446 H   0  0  0  0  0  0  0  0  0  0  0  0
    4.0296   -0.4649   -1.3125 H   0  0  0  0  0  0  0  0  0  0  0  0
   -0.7412   -3.9447   -0.2874 H   0  0  0  0  0  0  0  0  0  0  0  0
   -1.3755   -3.4889   -1.9176 H   0  0  0  0  0  0  0  0  0  0  0  0
   -2.2613   -4.6180   -0.8862 H   0  0  0  0  0  0  0  0  0  0  0  0
   -3.2375    3.8154    1.4952 H   0  0  0  0  0  0  0  0  0  0  0  0
   -1.5830    3.2502    1.7517 H   0  0  0  0  0  0  0  0  0  0  0  0
   -2.1887    3.6132    0.0873 H   0  0  0  0  0  0  0  0  0  0  0  0
    1.5469    1.5002   -1.1912 H   0  0  0  0  0  0  0  0  0  0  0  0
    1.6430   -0.1103   -1.8601 H   0  0  0  0  0  0  0  0  0  0  0  0
    0.1395   -1.9239   -1.0216 H   0  0  0  0  0  0  0  0  0  0  0  0
   -0.3460    2.1668    0.1007 H   0  0  0  0  0  0  0  0  0  0  0  0
    2.3412   -0.9952    0.4371 H   0  0  0  0  0  0  0  0  0  0  0  0
    1.4805    0.7471    1.7659 H   0  0  0  0  0  0  0  0  0  0  0  0
    3.0801    0.5914    2.0214 H   0  0  0  0  0  0  0  0  0  0  0  0
  1  7  1  0
  2 14  1  0
  3 15  1  0
  4  7  1  0
  4  8  1  0
  5  8  2  0
  5  9  1  0
  6  8  1  0
  6 10  2  0
  7 13  1  0
  9 11  2  0
  9 14  1  0
 10 11  1  0
 10 15  1  0
 11 12  1  0
  1 16  1  0
  1 17  1  0
  1 18  1  0
  2 19  1  0
  2 20  1  0
  2 21  1  0
  3 22  1  0
  3 23  1  0
  3 24  1  0
  4 25  1  0
  4 26  1  0
  5 27  1  0
  6 28  1  0
  7 29  1  0
 13 30  1  0
 13 31  1  0
M  END
