
     RDKit          3D

 29 30  0  0  0  0  0  0  0  0999 V2000
   -4.3270    0.4110   -0.0236 C   0  0  0  0  0  0  0  0  0  0  0  0
   -3.7017    1.4537   -0.6973 C   0  0  0  0  0  0  0  0  0  0  0  0
   -3.5817   -0.6967    0.3671 C   0  0  0  0  0  0  0  0  0  0  0  0
   -2.3305    1.3890   -0.9640 C   0  0  0  0  0  0  0  0  0  0  0  0
   -2.2092   -0.7546    0.0957 C   0  0  0  0  0  0  0  0  0  0  0  0
    2.0526   -0.6653   -1.0762 C   0  0  0  0  0  0  0  0  0  0  0  0
    1.0431   -0.1174    1.1960 C   0  0  0  0  0  0  0  0  0  0  0  0
    3.0945    0.3314   -0.5835 C   0  0  0  0  0  0  0  0  0  0  0  0
    2.4502   -0.4994    1.6371 C   0  0  0  0  0  0  0  0  0  0  0  0
   -1.5497    0.3011   -0.5428 C   0  0  0  0  0  0  0  0  0  0  0  0
    0.7662   -0.6045   -0.2338 C   0  0  0  0  0  0  0  0  0  0  0  0
    3.4843    0.1233    0.8107 N   0  0  0  0  0  0  0  0  0  0  0  0
   -0.1993    0.2787   -0.9011 N   0  0  0  0  0  0  0  0  0  0  0  0
   -5.3927    0.4539    0.1829 H   0  0  0  0  0  0  0  0  0  0  0  0
   -4.2773    2.3147   -1.0255 H   0  0  0  0  0  0  0  0  0  0  0  0
   -4.0666   -1.5259    0.8752 H   0  0  0  0  0  0  0  0  0  0  0  0
   -1.8702    2.2075   -1.5119 H   0  0  0  0  0  0  0  0  0  0  0  0
   -1.6758   -1.6497    0.3964 H   0  0  0  0  0  0  0  0  0  0  0  0
    2.4773   -1.6761   -1.0084 H   0  0  0  0  0  0  0  0  0  0  0  0
    1.8398   -0.4925   -2.1382 H   0  0  0  0  0  0  0  0  0  0  0  0
    0.9226    0.9718    1.2717 H   0  0  0  0  0  0  0  0  0  0  0  0
    0.3087   -0.5531    1.8839 H   0  0  0  0  0  0  0  0  0  0  0  0
    2.7075    1.3519   -0.6907 H   0  0  0  0  0  0  0  0  0  0  0  0
    3.9885    0.2751   -1.2148 H   0  0  0  0  0  0  0  0  0  0  0  0
    2.5611   -1.5903    1.6026 H   0  0  0  0  0  0  0  0  0  0  0  0
    2.6068   -0.1980    2.6783 H   0  0  0  0  0  0  0  0  0  0  0  0
    0.3758   -1.6287   -0.2107 H   0  0  0  0  0  0  0  0  0  0  0  0
    4.3390   -0.4310    0.8626 H   0  0  0  0  0  0  0  0  0  0  0  0
    0.1636    1.2198   -1.0376 H   0  0  0  0  0  0  0  0  0  0  0  0
  1  2  2  0
  1  3  1  0
  2  4  1  0
  3  5  2  0
  4 10  2  0
  5 10  1  0
  6  8  1  0
  6 11  1  0
  7  9  1  0
  7 11  1  0
  8 12  1  0
  9 12  1  0
 10 13  1  0
 11 13  1  0
  1 14  1  0
  2 15  1  0
  3 16  1  0
  4 17  1  0
  5 18  1  0
  6 19  1  0
  6 20  1  0
  7 21  1  0
  7 22  1  0
  8 23  1  0
  8 24  1  0
  9 25  1  0
  9 26  1  0
 11 27  1  0
 12 28  1  0
 13 29  1  0
M  END
