
     RDKit          3D

 32 32  0  0  0  0  0  0  0  0999 V2000
   -2.8307   -0.7151    1.9419 C   0  0  0  0  0  0  0  0  0  0  0  0
   -3.7183    0.0334   -0.3001 C   0  0  0  0  0  0  0  0  0  0  0  0
    1.6486   -1.2622   -0.2009 C   0  0  0  0  0  0  0  0  0  0  0  0
    2.0422    0.8835   -1.2475 C   0  0  0  0  0  0  0  0  0  0  0  0
    3.0127   -1.5558   -0.2805 C   0  0  0  0  0  0  0  0  0  0  0  0
    3.4077    0.6001   -1.3324 C   0  0  0  0  0  0  0  0  0  0  0  0
   -0.6730    0.9273    0.7846 C   0  0  0  0  0  0  0  0  0  0  0  0
   -3.1434    0.4818    1.0440 C   0  0  0  0  0  0  0  0  0  0  0  0
    1.1470   -0.0430   -0.6870 C   0  0  0  0  0  0  0  0  0  0  0  0
    3.8880   -0.6215   -0.8479 C   0  0  0  0  0  0  0  0  0  0  0  0
   -0.3342    0.2614   -0.5688 C   0  0  0  0  0  0  0  0  0  0  0  0
   -2.0508    1.4562    0.8753 N   0  0  0  0  0  0  0  0  0  0  0  0
    5.3215   -0.9257   -0.9327 N   0  0  0  0  0  4  0  0  0  0  0  0
   -0.7483    1.1293   -1.6286 O   0  0  0  0  0  0  0  0  0  0  0  0
    5.7050   -2.0214   -0.4973 O   0  0  0  0  0  1  0  0  0  0  0  0
    6.0663   -0.0689   -1.4299 O   0  0  0  0  0  0  0  0  0  0  0  0
   -2.4446   -0.3872    2.9130 H   0  0  0  0  0  0  0  0  0  0  0  0
   -2.0992   -1.3905    1.4862 H   0  0  0  0  0  0  0  0  0  0  0  0
   -3.7397   -1.2968    2.1312 H   0  0  0  0  0  0  0  0  0  0  0  0
   -4.6562   -0.5126   -0.1472 H   0  0  0  0  0  0  0  0  0  0  0  0
   -3.0436   -0.6292   -0.8466 H   0  0  0  0  0  0  0  0  0  0  0  0
   -3.9448    0.8948   -0.9382 H   0  0  0  0  0  0  0  0  0  0  0  0
    0.9756   -1.9961    0.2395 H   0  0  0  0  0  0  0  0  0  0  0  0
    1.6714    1.8332   -1.6319 H   0  0  0  0  0  0  0  0  0  0  0  0
    3.3728   -2.5098    0.0991 H   0  0  0  0  0  0  0  0  0  0  0  0
    4.0734    1.3359   -1.7786 H   0  0  0  0  0  0  0  0  0  0  0  0
   -0.4265    0.2735    1.6284 H   0  0  0  0  0  0  0  0  0  0  0  0
   -0.0204    1.8042    0.8946 H   0  0  0  0  0  0  0  0  0  0  0  0
   -3.9524    1.0377    1.5371 H   0  0  0  0  0  0  0  0  0  0  0  0
   -0.8896   -0.6735   -0.6891 H   0  0  0  0  0  0  0  0  0  0  0  0
   -2.0721    2.0799    1.6865 H   0  0  0  0  0  0  0  0  0  0  0  0
   -1.5443    1.5772   -1.2764 H   0  0  0  0  0  0  0  0  0  0  0  0
  1  8  1  0
  2  8  1  0
  3  5  2  0
  3  9  1  0
  4  6  1  0
  4  9  2  0
  5 10  1  0
  6 10  2  0
  7 11  1  0
  7 12  1  0
  8 12  1  0
  9 11  1  0
 10 13  1  0
 11 14  1  0
 13 15  1  0
 13 16  2  0
  1 17  1  0
  1 18  1  0
  1 19  1  0
  2 20  1  0
  2 21  1  0
  2 22  1  0
  3 23  1  0
  4 24  1  0
  5 25  1  0
  6 26  1  0
  7 27  1  0
  7 28  1  0
  8 29  1  0
 11 30  1  0
 12 31  1  0
 14 32  1  0
M  CHG  2  13   1  15  -1
M  END
