
     RDKit          3D

 29 29  0  0  0  0  0  0  0  0999 V2000
    4.4537    0.3768   -0.0124 C   0  0  0  0  0  0  0  0  0  0  0  0
   -3.0747   -0.8757    0.9947 C   0  0  0  0  0  0  0  0  0  0  0  0
    3.3937    0.2337    1.0690 C   0  0  0  0  0  0  0  0  0  0  0  0
    1.5128   -1.1966    0.1803 C   0  0  0  0  0  0  0  0  0  0  0  0
    1.2235    1.1959    0.2118 C   0  0  0  0  0  0  0  0  0  0  0  0
    0.2388   -1.3426   -0.3749 C   0  0  0  0  0  0  0  0  0  0  0  0
   -0.0498    1.0490   -0.3441 C   0  0  0  0  0  0  0  0  0  0  0  0
   -1.9329   -0.3857   -1.2480 C   0  0  0  0  0  0  0  0  0  0  0  0
   -3.1406   -0.1047   -0.3228 C   0  0  0  0  0  0  0  0  0  0  0  0
    2.0145    0.0740    0.4841 C   0  0  0  0  0  0  0  0  0  0  0  0
   -0.5579   -0.2209   -0.6410 C   0  0  0  0  0  0  0  0  0  0  0  0
   -3.3283    1.3258   -0.0528 N   0  0  0  0  0  0  0  0  0  0  0  0
    4.4781   -0.5034   -0.6638 H   0  0  0  0  0  0  0  0  0  0  0  0
    4.2648    1.2540   -0.6404 H   0  0  0  0  0  0  0  0  0  0  0  0
    5.4435    0.4909    0.4407 H   0  0  0  0  0  0  0  0  0  0  0  0
   -4.0052   -0.7568    1.5614 H   0  0  0  0  0  0  0  0  0  0  0  0
   -2.2538   -0.5307    1.6326 H   0  0  0  0  0  0  0  0  0  0  0  0
   -2.9365   -1.9464    0.8100 H   0  0  0  0  0  0  0  0  0  0  0  0
    3.4160    1.1102    1.7280 H   0  0  0  0  0  0  0  0  0  0  0  0
    3.6271   -0.6290    1.7048 H   0  0  0  0  0  0  0  0  0  0  0  0
    2.1117   -2.0833    0.3745 H   0  0  0  0  0  0  0  0  0  0  0  0
    1.5914    2.1949    0.4332 H   0  0  0  0  0  0  0  0  0  0  0  0
   -0.1264   -2.3424   -0.5972 H   0  0  0  0  0  0  0  0  0  0  0  0
   -0.6482    1.9363   -0.5377 H   0  0  0  0  0  0  0  0  0  0  0  0
   -2.0300   -1.4126   -1.6266 H   0  0  0  0  0  0  0  0  0  0  0  0
   -1.9946    0.2502   -2.1418 H   0  0  0  0  0  0  0  0  0  0  0  0
   -4.0368   -0.4423   -0.8589 H   0  0  0  0  0  0  0  0  0  0  0  0
   -4.1588    1.4609    0.5220 H   0  0  0  0  0  0  0  0  0  0  0  0
   -3.4951    1.8205   -0.9276 H   0  0  0  0  0  0  0  0  0  0  0  0
  1  3  1  0
  2  9  1  0
  3 10  1  0
  4  6  2  0
  4 10  1  0
  5  7  1  0
  5 10  2  0
  6 11  1  0
  7 11  2  0
  8  9  1  0
  8 11  1  0
  9 12  1  0
  1 13  1  0
  1 14  1  0
  1 15  1  0
  2 16  1  0
  2 17  1  0
  2 18  1  0
  3 19  1  0
  3 20  1  0
  4 21  1  0
  5 22  1  0
  6 23  1  0
  7 24  1  0
  8 25  1  0
  8 26  1  0
  9 27  1  0
 12 28  1  0
 12 29  1  0
M  END
