
     RDKit          3D

 29 29  0  0  0  0  0  0  0  0999 V2000
   -0.4130   -1.1174    1.8384 C   0  0  0  0  0  0  0  0  0  0  0  0
   -2.8394   -0.7821    0.0726 C   0  0  0  0  0  0  0  0  0  0  0  0
   -1.6201    1.3958    0.2001 C   0  0  0  0  0  0  0  0  0  0  0  0
    3.5835    0.9054   -0.6449 C   0  0  0  0  0  0  0  0  0  0  0  0
    3.0164   -0.0676   -1.4628 C   0  0  0  0  0  0  0  0  0  0  0  0
    2.9047    1.3341    0.4926 C   0  0  0  0  0  0  0  0  0  0  0  0
    1.7725   -0.6145   -1.1402 C   0  0  0  0  0  0  0  0  0  0  0  0
    1.6598    0.7874    0.8153 C   0  0  0  0  0  0  0  0  0  0  0  0
   -0.2824   -0.8311    0.3298 C   0  0  0  0  0  0  0  0  0  0  0  0
    1.0745   -0.1997    0.0062 C   0  0  0  0  0  0  0  0  0  0  0  0
   -1.5204   -0.0629   -0.2780 C   0  0  0  0  0  0  0  0  0  0  0  0
   -1.4346   -0.0374   -1.7529 N   0  0  0  0  0  0  0  0  0  0  0  0
   -0.5655   -0.2072    2.4258 H   0  0  0  0  0  0  0  0  0  0  0  0
   -1.2530   -1.7892    2.0411 H   0  0  0  0  0  0  0  0  0  0  0  0
    0.4866   -1.6140    2.2211 H   0  0  0  0  0  0  0  0  0  0  0  0
   -3.0602   -0.7197    1.1436 H   0  0  0  0  0  0  0  0  0  0  0  0
   -2.8032   -1.8414   -0.2066 H   0  0  0  0  0  0  0  0  0  0  0  0
   -3.6932   -0.3321   -0.4491 H   0  0  0  0  0  0  0  0  0  0  0  0
   -2.5212    1.8817   -0.1945 H   0  0  0  0  0  0  0  0  0  0  0  0
   -1.6757    1.4586    1.2916 H   0  0  0  0  0  0  0  0  0  0  0  0
   -0.7662    1.9965   -0.1304 H   0  0  0  0  0  0  0  0  0  0  0  0
    4.5495    1.3335   -0.8971 H   0  0  0  0  0  0  0  0  0  0  0  0
    3.5377   -0.3989   -2.3566 H   0  0  0  0  0  0  0  0  0  0  0  0
    3.3415    2.0989    1.1290 H   0  0  0  0  0  0  0  0  0  0  0  0
    1.3422   -1.3648   -1.7994 H   0  0  0  0  0  0  0  0  0  0  0  0
    1.1519    1.1523    1.7038 H   0  0  0  0  0  0  0  0  0  0  0  0
   -0.2707   -1.8302   -0.1337 H   0  0  0  0  0  0  0  0  0  0  0  0
   -1.4645   -0.9865   -2.1206 H   0  0  0  0  0  0  0  0  0  0  0  0
   -2.2376    0.4526   -2.1442 H   0  0  0  0  0  0  0  0  0  0  0  0
  1  9  1  0
  2 11  1  0
  3 11  1  0
  4  5  2  0
  4  6  1  0
  5  7  1  0
  6  8  2  0
  7 10  2  0
  8 10  1  0
  9 10  1  0
  9 11  1  0
 11 12  1  0
  1 13  1  0
  1 14  1  0
  1 15  1  0
  2 16  1  0
  2 17  1  0
  2 18  1  0
  3 19  1  0
  3 20  1  0
  3 21  1  0
  4 22  1  0
  5 23  1  0
  6 24  1  0
  7 25  1  0
  8 26  1  0
  9 27  1  0
 12 28  1  0
 12 29  1  0
M  END
