
     RDKit          3D

 29 29  0  0  0  0  0  0  0  0999 V2000
    3.8786    1.3346   -0.2721 C   0  0  0  0  0  0  0  0  0  0  0  0
   -1.6718   -0.5100    1.7543 C   0  0  0  0  0  0  0  0  0  0  0  0
   -3.9577    0.4130   -0.0023 C   0  0  0  0  0  0  0  0  0  0  0  0
    2.1826   -2.0626   -0.3981 C   0  0  0  0  0  0  0  0  0  0  0  0
    3.1688   -1.0791   -0.3290 C   0  0  0  0  0  0  0  0  0  0  0  0
    0.8400   -1.7019   -0.5083 C   0  0  0  0  0  0  0  0  0  0  0  0
    1.4699    0.6301   -0.4765 C   0  0  0  0  0  0  0  0  0  0  0  0
   -0.9856    0.0437   -0.6479 C   0  0  0  0  0  0  0  0  0  0  0  0
    2.8222    0.2752   -0.3805 C   0  0  0  0  0  0  0  0  0  0  0  0
   -1.5821    0.5771    0.6769 C   0  0  0  0  0  0  0  0  0  0  0  0
    0.4701   -0.3519   -0.5454 C   0  0  0  0  0  0  0  0  0  0  0  0
   -2.8791    1.2588    0.4885 N   0  0  0  0  0  0  0  0  0  0  0  0
    4.8273    0.9854   -0.6932 H   0  0  0  0  0  0  0  0  0  0  0  0
    4.0344    1.6014    0.7777 H   0  0  0  0  0  0  0  0  0  0  0  0
    3.5888    2.2330   -0.8271 H   0  0  0  0  0  0  0  0  0  0  0  0
   -2.2201   -1.3906    1.4038 H   0  0  0  0  0  0  0  0  0  0  0  0
   -2.1710   -0.1305    2.6530 H   0  0  0  0  0  0  0  0  0  0  0  0
   -0.6730   -0.8399    2.0590 H   0  0  0  0  0  0  0  0  0  0  0  0
   -3.7415    0.0004   -0.9919 H   0  0  0  0  0  0  0  0  0  0  0  0
   -4.8677    1.0152   -0.0931 H   0  0  0  0  0  0  0  0  0  0  0  0
   -4.1869   -0.4030    0.6888 H   0  0  0  0  0  0  0  0  0  0  0  0
    2.4609   -3.1126   -0.3622 H   0  0  0  0  0  0  0  0  0  0  0  0
    4.2107   -1.3764   -0.2353 H   0  0  0  0  0  0  0  0  0  0  0  0
    0.0842   -2.4824   -0.5571 H   0  0  0  0  0  0  0  0  0  0  0  0
    1.1925    1.6825   -0.4987 H   0  0  0  0  0  0  0  0  0  0  0  0
   -1.5690   -0.8111   -1.0133 H   0  0  0  0  0  0  0  0  0  0  0  0
   -1.0654    0.8133   -1.4279 H   0  0  0  0  0  0  0  0  0  0  0  0
   -0.9077    1.3486    1.0707 H   0  0  0  0  0  0  0  0  0  0  0  0
   -2.7522    2.0397   -0.1555 H   0  0  0  0  0  0  0  0  0  0  0  0
  1  9  1  0
  2 10  1  0
  3 12  1  0
  4  5  2  0
  4  6  1  0
  5  9  1  0
  6 11  2  0
  7  9  2  0
  7 11  1  0
  8 10  1  0
  8 11  1  0
 10 12  1  0
  1 13  1  0
  1 14  1  0
  1 15  1  0
  2 16  1  0
  2 17  1  0
  2 18  1  0
  3 19  1  0
  3 20  1  0
  3 21  1  0
  4 22  1  0
  5 23  1  0
  6 24  1  0
  7 25  1  0
  8 26  1  0
  8 27  1  0
 10 28  1  0
 12 29  1  0
M  END
