
     RDKit          3D

 32 32  0  0  0  0  0  0  0  0999 V2000
   -1.4973   -3.0544    1.8455 C   0  0  0  0  0  0  0  0  0  0  0  0
   -0.3729    3.3943    0.3806 C   0  0  0  0  0  0  0  0  0  0  0  0
   -4.0771    0.9321   -0.3065 C   0  0  0  0  0  0  0  0  0  0  0  0
    2.1896   -1.0771   -1.2024 C   0  0  0  0  0  0  0  0  0  0  0  0
    3.4224   -0.7691   -0.3399 C   0  0  0  0  0  0  0  0  0  0  0  0
    0.0880   -1.4251    0.1679 C   0  0  0  0  0  0  0  0  0  0  0  0
    0.4853    0.7440   -0.8134 C   0  0  0  0  0  0  0  0  0  0  0  0
    0.8936   -0.5761   -0.6083 C   0  0  0  0  0  0  0  0  0  0  0  0
   -1.1196   -0.9737    0.7234 C   0  0  0  0  0  0  0  0  0  0  0  0
   -0.7027    1.2106   -0.2467 C   0  0  0  0  0  0  0  0  0  0  0  0
   -1.5315    0.3579    0.5036 C   0  0  0  0  0  0  0  0  0  0  0  0
    3.8261    0.6358   -0.4043 N   0  0  0  0  0  0  0  0  0  0  0  0
   -1.9603   -1.7663    1.4669 O   0  0  0  0  0  0  0  0  0  0  0  0
   -1.0706    2.5109   -0.4994 O   0  0  0  0  0  0  0  0  0  0  0  0
   -3.0772    0.9696    1.2006 S   0  0  0  0  0  0  0  0  0  0  0  0
   -2.2515   -3.5014    2.5004 H   0  0  0  0  0  0  0  0  0  0  0  0
   -1.3902   -3.7050    0.9715 H   0  0  0  0  0  0  0  0  0  0  0  0
   -0.5617   -2.9914    2.4111 H   0  0  0  0  0  0  0  0  0  0  0  0
    0.6913    3.4404    0.1262 H   0  0  0  0  0  0  0  0  0  0  0  0
   -0.5011    3.1062    1.4300 H   0  0  0  0  0  0  0  0  0  0  0  0
   -0.7943    4.3957    0.2511 H   0  0  0  0  0  0  0  0  0  0  0  0
   -5.0984    1.2393   -0.0662 H   0  0  0  0  0  0  0  0  0  0  0  0
   -4.1081   -0.0795   -0.7205 H   0  0  0  0  0  0  0  0  0  0  0  0
   -3.6788    1.6185   -1.0581 H   0  0  0  0  0  0  0  0  0  0  0  0
    2.3135   -0.6686   -2.2139 H   0  0  0  0  0  0  0  0  0  0  0  0
    2.1189   -2.1645   -1.3361 H   0  0  0  0  0  0  0  0  0  0  0  0
    3.2367   -1.0421    0.7049 H   0  0  0  0  0  0  0  0  0  0  0  0
    4.2615   -1.3792   -0.6930 H   0  0  0  0  0  0  0  0  0  0  0  0
    0.4208   -2.4474    0.3168 H   0  0  0  0  0  0  0  0  0  0  0  0
    1.0957    1.4181   -1.4093 H   0  0  0  0  0  0  0  0  0  0  0  0
    4.0913    0.8741   -1.3589 H   0  0  0  0  0  0  0  0  0  0  0  0
    4.6587    0.7735    0.1675 H   0  0  0  0  0  0  0  0  0  0  0  0
  1 13  1  0
  2 14  1  0
  3 15  1  0
  4  5  1  0
  4  8  1  0
  5 12  1  0
  6  8  2  0
  6  9  1  0
  7  8  1  0
  7 10  2  0
  9 11  2  0
  9 13  1  0
 10 11  1  0
 10 14  1  0
 11 15  1  0
  1 16  1  0
  1 17  1  0
  1 18  1  0
  2 19  1  0
  2 20  1  0
  2 21  1  0
  3 22  1  0
  3 23  1  0
  3 24  1  0
  4 25  1  0
  4 26  1  0
  5 27  1  0
  5 28  1  0
  6 29  1  0
  7 30  1  0
 12 31  1  0
 12 32  1  0
M  END
