
     RDKit          3D

 32 32  0  0  0  0  0  0  0  0999 V2000
   -1.4332   -2.9945   -1.0567 C   0  0  0  0  0  0  0  0  0  0  0  0
    2.2003    2.9545    1.3444 C   0  0  0  0  0  0  0  0  0  0  0  0
    3.8061   -1.9874   -2.0350 C   0  0  0  0  0  0  0  0  0  0  0  0
   -2.0432    0.2901    1.5579 C   0  0  0  0  0  0  0  0  0  0  0  0
   -3.1548    0.7992    0.6906 C   0  0  0  0  0  0  0  0  0  0  0  0
    0.2155    1.0458    0.9775 C   0  0  0  0  0  0  0  0  0  0  0  0
    0.6379   -1.0549   -0.7102 C   0  0  0  0  0  0  0  0  0  0  0  0
   -0.7758    0.1075    0.8047 C   0  0  0  0  0  0  0  0  0  0  0  0
   -0.5589   -0.9496   -0.0468 C   0  0  0  0  0  0  0  0  0  0  0  0
    1.4157    0.9162    0.2952 C   0  0  0  0  0  0  0  0  0  0  0  0
    1.6587   -0.1369   -0.5662 C   0  0  0  0  0  0  0  0  0  0  0  0
   -2.8576    2.0781    0.0893 N   0  0  0  0  0  0  0  0  0  0  0  0
   -1.5627   -1.8789   -0.2070 O   0  0  0  0  0  0  0  0  0  0  0  0
    2.3986    1.8598    0.4760 O   0  0  0  0  0  0  0  0  0  0  0  0
    3.3270   -0.2369   -1.4583 Se  0  0  0  0  0  2  0  0  0  0  0  0
   -0.9077   -3.8262   -0.5400 H   0  0  0  0  0  0  0  0  0  0  0  0
   -0.9399   -2.6616   -1.9839 H   0  0  0  0  0  0  0  0  0  0  0  0
   -2.4271   -3.3998   -1.3549 H   0  0  0  0  0  0  0  0  0  0  0  0
    1.2743    3.5016    1.0067 H   0  0  0  0  0  0  0  0  0  0  0  0
    3.0315    3.6807    1.2374 H   0  0  0  0  0  0  0  0  0  0  0  0
    2.0707    2.6064    2.4063 H   0  0  0  0  0  0  0  0  0  0  0  0
    4.9165   -2.1213   -1.9112 H   0  0  0  0  0  0  0  0  0  0  0  0
    3.3282   -2.8133   -1.5018 H   0  0  0  0  0  0  0  0  0  0  0  0
    3.6444   -2.0526   -3.1506 H   0  0  0  0  0  0  0  0  0  0  0  0
   -2.3733   -0.7070    1.9497 H   0  0  0  0  0  0  0  0  0  0  0  0
   -1.8944    0.9965    2.3923 H   0  0  0  0  0  0  0  0  0  0  0  0
   -3.3231    0.0852   -0.1387 H   0  0  0  0  0  0  0  0  0  0  0  0
   -4.0848    0.8517    1.2696 H   0  0  0  0  0  0  0  0  0  0  0  0
    0.0481    1.8851    1.6508 H   0  0  0  0  0  0  0  0  0  0  0  0
    0.8486   -1.8810   -1.3955 H   0  0  0  0  0  0  0  0  0  0  0  0
   -3.0748    2.8878    0.7205 H   0  0  0  0  0  0  0  0  0  0  0  0
   -3.4108    2.1557   -0.8122 H   0  0  0  0  0  0  0  0  0  0  0  0
  1 13  1  0
  2 14  1  0
  3 15  1  0
  4  5  1  0
  4  8  1  0
  5 12  1  0
  6  8  2  0
  6 10  1  0
  7  9  2  0
  7 11  1  0
  8  9  1  0
  9 13  1  0
 10 11  2  0
 10 14  1  0
 11 15  1  0
  1 16  1  0
  1 17  1  0
  1 18  1  0
  2 19  1  0
  2 20  1  0
  2 21  1  0
  3 22  1  0
  3 23  1  0
  3 24  1  0
  4 25  1  0
  4 26  1  0
  5 27  1  0
  5 28  1  0
  6 29  1  0
  7 30  1  0
 12 31  1  0
 12 32  1  0
M  END
