
     RDKit          3D

 26 27  0  0  0  0  0  0  0  0999 V2000
    3.1534   -1.4601   -0.5942 C   0  0  0  0  0  0  0  0  0  0  0  0
   -3.6245    1.1973    0.6631 C   0  0  0  0  0  0  0  0  0  0  0  0
   -2.2376    1.0441    0.5950 C   0  0  0  0  0  0  0  0  0  0  0  0
   -3.8873   -0.7290   -0.7570 C   0  0  0  0  0  0  0  0  0  0  0  0
    0.6238   -1.1316   -0.4347 C   0  0  0  0  0  0  0  0  0  0  0  0
    1.9233   -0.6948   -0.2775 C   0  0  0  0  0  0  0  0  0  0  0  0
   -4.4444    0.3031   -0.0083 C   0  0  0  0  0  0  0  0  0  0  0  0
   -2.4924   -0.8894   -0.8355 C   0  0  0  0  0  0  0  0  0  0  0  0
   -1.6453   -0.0121   -0.1368 C   0  0  0  0  0  0  0  0  0  0  0  0
    1.7930    0.6282    0.2354 C   0  0  0  0  0  0  0  0  0  0  0  0
    2.8443    1.5871    0.6210 C   0  0  0  0  0  0  0  0  0  0  0  0
   -6.1529    0.4800    0.0701 Cl  0  0  0  0  0  0  0  0  0  0  0  0
   -1.9824   -2.1389   -1.9159 Cl  0  0  0  0  0  0  0  0  0  0  0  0
    4.0105    1.0435    1.0973 N   0  0  0  0  0  0  0  0  0  0  0  0
    0.4978    0.9557    0.3664 N   0  0  0  0  0  0  0  0  0  0  0  0
   -0.2173   -0.0962   -0.1046 N   0  0  0  0  0  0  0  0  0  0  0  0
    2.7218    2.8085    0.5811 O   0  0  0  0  0  0  0  0  0  0  0  0
    3.8928   -0.8257   -1.0926 H   0  0  0  0  0  0  0  0  0  0  0  0
    2.9329   -2.2978   -1.2645 H   0  0  0  0  0  0  0  0  0  0  0  0
    3.5971   -1.8685    0.3189 H   0  0  0  0  0  0  0  0  0  0  0  0
   -4.0483    2.0146    1.2414 H   0  0  0  0  0  0  0  0  0  0  0  0
   -1.6226    1.7614    1.1404 H   0  0  0  0  0  0  0  0  0  0  0  0
   -4.5446   -1.4049   -1.3008 H   0  0  0  0  0  0  0  0  0  0  0  0
    0.2674   -2.0991   -0.7448 H   0  0  0  0  0  0  0  0  0  0  0  0
    4.6373    1.7142    1.5223 H   0  0  0  0  0  0  0  0  0  0  0  0
    4.0046    0.1104    1.4816 H   0  0  0  0  0  0  0  0  0  0  0  0
  1  6  1  0
  2  3  2  0
  2  7  1  0
  3  9  1  0
  4  7  2  0
  4  8  1  0
  5  6  2  0
  5 16  1  0
  6 10  1  0
  7 12  1  0
  8  9  2  0
  8 13  1  0
  9 16  1  0
 10 11  1  0
 10 15  2  0
 11 14  1  0
 11 17  2  0
 15 16  1  0
  1 18  1  0
  1 19  1  0
  1 20  1  0
  2 21  1  0
  3 22  1  0
  4 23  1  0
  5 24  1  0
 14 25  1  0
 14 26  1  0
M  END
