
     RDKit          3D

 26 28  0  0  0  0  0  0  0  0999 V2000
    1.7147   -0.1411   -0.3328 C   0  0  0  0  0  0  0  0  0  0  0  0
    0.0861    2.6551    0.0038 C   0  0  0  0  0  0  0  0  0  0  0  0
   -2.5062   -2.3028   -0.5237 C   0  0  0  0  0  0  0  0  0  0  0  0
    2.2719   -0.3930    1.0727 C   0  0  0  0  0  0  0  0  0  0  0  0
   -1.0271    3.4552    0.1077 C   0  0  0  0  0  0  0  0  0  0  0  0
   -1.3903   -3.1000   -0.6200 C   0  0  0  0  0  0  0  0  0  0  0  0
    0.2146    0.0502   -0.3071 C   0  0  0  0  0  0  0  0  0  0  0  0
   -0.3844    1.3206   -0.1509 C   0  0  0  0  0  0  0  0  0  0  0  0
   -2.0385   -0.9655   -0.3861 C   0  0  0  0  0  0  0  0  0  0  0  0
   -2.6105    0.3037   -0.2408 C   0  0  0  0  0  0  0  0  0  0  0  0
   -0.6502   -1.0497   -0.4129 C   0  0  0  0  0  0  0  0  0  0  0  0
   -1.7747    1.4097   -0.1249 C   0  0  0  0  0  0  0  0  0  0  0  0
   -4.4937    0.5095   -0.1957 Br  0  0  0  0  0  0  0  0  0  0  0  0
    3.7223   -0.5808    1.0605 N   0  0  0  0  0  0  0  0  0  0  0  0
   -0.2618   -2.3493   -0.5534 O   0  0  0  0  0  0  0  0  0  0  0  0
   -2.1579    2.7100    0.0298 O   0  0  0  0  0  0  0  0  0  0  0  0
    1.9651   -0.9799   -0.9947 H   0  0  0  0  0  0  0  0  0  0  0  0
    2.1874    0.7458   -0.7730 H   0  0  0  0  0  0  0  0  0  0  0  0
    1.1123    2.9926    0.0360 H   0  0  0  0  0  0  0  0  0  0  0  0
   -3.5324   -2.6419   -0.5469 H   0  0  0  0  0  0  0  0  0  0  0  0
    1.8067   -1.2810    1.5158 H   0  0  0  0  0  0  0  0  0  0  0  0
    2.0347    0.4500    1.7317 H   0  0  0  0  0  0  0  0  0  0  0  0
   -1.1771    4.5185    0.2349 H   0  0  0  0  0  0  0  0  0  0  0  0
   -1.2375   -4.1645   -0.7332 H   0  0  0  0  0  0  0  0  0  0  0  0
    4.1722    0.2191    0.6178 H   0  0  0  0  0  0  0  0  0  0  0  0
    3.9543   -1.3904    0.4852 H   0  0  0  0  0  0  0  0  0  0  0  0
  1  4  1  0
  1  7  1  0
  2  5  2  0
  2  8  1  0
  3  6  2  0
  3  9  1  0
  4 14  1  0
  5 16  1  0
  6 15  1  0
  7  8  2  0
  7 11  1  0
  8 12  1  0
  9 10  1  0
  9 11  2  0
 10 12  2  0
 10 13  1  0
 11 15  1  0
 12 16  1  0
  1 17  1  0
  1 18  1  0
  2 19  1  0
  3 20  1  0
  4 21  1  0
  4 22  1  0
  5 23  1  0
  6 24  1  0
 14 25  1  0
 14 26  1  0
M  END
