
     RDKit          3D

 26 27  0  0  0  0  0  0  0  0999 V2000
    4.9280    1.1943   -0.1090 C   0  0  0  0  0  0  0  0  0  0  0  0
    3.9638    0.5436   -0.4088 C   0  0  0  0  0  0  0  0  0  0  0  0
   -3.3759    1.2039    0.7409 C   0  0  0  0  0  0  0  0  0  0  0  0
   -2.4345    2.1387    0.2826 C   0  0  0  0  0  0  0  0  0  0  0  0
   -3.0761   -0.1600    0.7561 C   0  0  0  0  0  0  0  0  0  0  0  0
   -1.1797    1.7221   -0.1671 C   0  0  0  0  0  0  0  0  0  0  0  0
   -1.2925   -1.9562    0.2111 C   0  0  0  0  0  0  0  0  0  0  0  0
    0.2160   -1.6864    0.1177 C   0  0  0  0  0  0  0  0  0  0  0  0
    2.7845   -0.2521   -0.7739 C   0  0  0  0  0  0  0  0  0  0  0  0
   -1.8243   -0.5620    0.3209 C   0  0  0  0  0  0  0  0  0  0  0  0
   -0.8809    0.3682   -0.1360 C   0  0  0  0  0  0  0  0  0  0  0  0
    0.3698   -0.3292   -0.6069 C   0  0  0  0  0  0  0  0  0  0  0  0
    1.5856    0.3976   -0.2622 N   0  0  0  0  0  0  0  0  0  0  0  0
    5.7783    1.7791    0.1559 H   0  0  0  0  0  0  0  0  0  0  0  0
   -4.3500    1.5464    1.0813 H   0  0  0  0  0  0  0  0  0  0  0  0
   -2.6865    3.1962    0.2716 H   0  0  0  0  0  0  0  0  0  0  0  0
   -3.8096   -0.8819    1.1001 H   0  0  0  0  0  0  0  0  0  0  0  0
   -0.4536    2.4418   -0.5335 H   0  0  0  0  0  0  0  0  0  0  0  0
   -1.6685   -2.4338   -0.6995 H   0  0  0  0  0  0  0  0  0  0  0  0
   -1.5349   -2.5678    1.0846 H   0  0  0  0  0  0  0  0  0  0  0  0
    0.6260   -1.6250    1.1366 H   0  0  0  0  0  0  0  0  0  0  0  0
    0.7462   -2.4969   -0.3934 H   0  0  0  0  0  0  0  0  0  0  0  0
    2.7328   -0.3388   -1.8652 H   0  0  0  0  0  0  0  0  0  0  0  0
    2.8941   -1.2609   -0.3609 H   0  0  0  0  0  0  0  0  0  0  0  0
    0.2878   -0.4631   -1.6935 H   0  0  0  0  0  0  0  0  0  0  0  0
    1.6542    0.4822    0.7506 H   0  0  0  0  0  0  0  0  0  0  0  0
  1  2  3  0
  2  9  1  0
  3  4  2  0
  3  5  1  0
  4  6  1  0
  5 10  2  0
  6 11  2  0
  7  8  1  0
  7 10  1  0
  8 12  1  0
  9 13  1  0
 10 11  1  0
 11 12  1  0
 12 13  1  0
  1 14  1  0
  3 15  1  0
  4 16  1  0
  5 17  1  0
  6 18  1  0
  7 19  1  0
  7 20  1  0
  8 21  1  0
  8 22  1  0
  9 23  1  0
  9 24  1  0
 12 25  1  0
 13 26  1  0
M  END
