
     RDKit          3D

 30 32  0  0  0  0  0  0  0  0999 V2000
   -3.4207    0.6897   -1.0085 C   0  0  0  0  0  0  0  0  0  0  0  0
   -2.3897   -0.3886   -1.3418 C   0  0  0  0  0  0  0  0  0  0  0  0
   -3.0466    1.5151    0.2229 C   0  0  0  0  0  0  0  0  0  0  0  0
    2.0983   -1.5532    1.1122 C   0  0  0  0  0  0  0  0  0  0  0  0
    3.3470   -1.9710    0.6123 C   0  0  0  0  0  0  0  0  0  0  0  0
   -0.9825    0.0091   -0.9088 C   0  0  0  0  0  0  0  0  0  0  0  0
   -2.1481    0.7409    1.1786 C   0  0  0  0  0  0  0  0  0  0  0  0
    2.0561    0.5886   -0.1743 C   0  0  0  0  0  0  0  0  0  0  0  0
    1.4727   -0.3338    0.7189 C   0  0  0  0  0  0  0  0  0  0  0  0
    3.9358   -1.0753   -0.2990 C   0  0  0  0  0  0  0  0  0  0  0  0
    3.3015    0.1814   -0.6816 C   0  0  0  0  0  0  0  0  0  0  0  0
    0.1708   -0.0040    1.3446 C   0  0  0  0  0  0  0  0  0  0  0  0
    5.0999   -1.1722   -0.9507 N   0  0  0  0  0  0  0  0  0  0  0  0
    4.1033    0.8070   -1.5510 N   0  0  0  0  0  0  0  0  0  0  0  0
   -0.9149    0.3019    0.5272 N   0  0  0  0  0  0  0  0  0  0  0  0
    0.1183   -0.0131    2.5718 O   0  0  0  0  0  0  0  0  0  0  0  0
    5.2030   -0.0200   -1.7125 O   0  0  0  0  0  0  0  0  0  0  0  0
   -3.5435    1.3658   -1.8632 H   0  0  0  0  0  0  0  0  0  0  0  0
   -4.3955    0.2111   -0.8551 H   0  0  0  0  0  0  0  0  0  0  0  0
   -2.6701   -1.3175   -0.8282 H   0  0  0  0  0  0  0  0  0  0  0  0
   -2.4122   -0.6047   -2.4157 H   0  0  0  0  0  0  0  0  0  0  0  0
   -3.9548    1.8490    0.7368 H   0  0  0  0  0  0  0  0  0  0  0  0
   -2.5199    2.4206   -0.1052 H   0  0  0  0  0  0  0  0  0  0  0  0
    1.5883   -2.1895    1.8381 H   0  0  0  0  0  0  0  0  0  0  0  0
    3.8195   -2.8983    0.9092 H   0  0  0  0  0  0  0  0  0  0  0  0
   -0.2854   -0.7953   -1.1624 H   0  0  0  0  0  0  0  0  0  0  0  0
   -0.6680    0.9140   -1.4413 H   0  0  0  0  0  0  0  0  0  0  0  0
   -1.8998    1.3636    2.0456 H   0  0  0  0  0  0  0  0  0  0  0  0
   -2.6611   -0.1532    1.5530 H   0  0  0  0  0  0  0  0  0  0  0  0
    1.5984    1.5320   -0.4395 H   0  0  0  0  0  0  0  0  0  0  0  0
  1  2  1  0
  1  3  1  0
  2  6  1  0
  3  7  1  0
  4  5  2  0
  4  9  1  0
  5 10  1  0
  6 15  1  0
  7 15  1  0
  8  9  2  0
  8 11  1  0
  9 12  1  0
 10 11  1  0
 10 13  2  0
 11 14  2  0
 12 15  1  0
 12 16  2  0
 13 17  1  0
 14 17  1  0
  1 18  1  0
  1 19  1  0
  2 20  1  0
  2 21  1  0
  3 22  1  0
  3 23  1  0
  4 24  1  0
  5 25  1  0
  6 26  1  0
  6 27  1  0
  7 28  1  0
  7 29  1  0
  8 30  1  0
M  END
