
     RDKit          3D

 29 30  0  0  0  0  0  0  0  0999 V2000
   -3.6275   -0.3611   -0.6250 C   0  0  0  0  0  0  0  0  0  0  0  0
   -3.9853    0.0050    0.6656 C   0  0  0  0  0  0  0  0  0  0  0  0
    3.0832    0.2142   -0.0788 C   0  0  0  0  0  0  0  0  0  0  0  0
    2.3818   -0.8055    0.7943 C   0  0  0  0  0  0  0  0  0  0  0  0
   -2.2809   -0.3805   -1.0026 C   0  0  0  0  0  0  0  0  0  0  0  0
   -2.9953    0.3610    1.5760 C   0  0  0  0  0  0  0  0  0  0  0  0
    2.3113    1.5183   -0.0779 C   0  0  0  0  0  0  0  0  0  0  0  0
    0.9968   -1.1747    0.2686 C   0  0  0  0  0  0  0  0  0  0  0  0
   -1.2482   -0.0434   -0.0992 C   0  0  0  0  0  0  0  0  0  0  0  0
   -1.6438    0.3441    1.2023 C   0  0  0  0  0  0  0  0  0  0  0  0
    0.8463    1.3649   -0.4282 C   0  0  0  0  0  0  0  0  0  0  0  0
    0.2368   -0.0753   -0.5351 C   0  0  0  0  0  0  0  0  0  0  0  0
   -0.5150    0.8241    2.4268 Cl  0  0  0  0  0  0  0  0  0  0  0  0
    0.3779   -0.4401   -1.9787 N   0  0  0  0  0  0  0  0  0  0  0  0
    0.1867    2.3861   -0.6564 O   0  0  0  0  0  0  0  0  0  0  0  0
   -4.3955   -0.6201   -1.3501 H   0  0  0  0  0  0  0  0  0  0  0  0
   -5.0315    0.0281    0.9582 H   0  0  0  0  0  0  0  0  0  0  0  0
    3.1967   -0.1711   -1.0979 H   0  0  0  0  0  0  0  0  0  0  0  0
    4.0946    0.3933    0.3039 H   0  0  0  0  0  0  0  0  0  0  0  0
    2.9932   -1.7121    0.8740 H   0  0  0  0  0  0  0  0  0  0  0  0
    2.2907   -0.4090    1.8129 H   0  0  0  0  0  0  0  0  0  0  0  0
   -2.0582   -0.6432   -2.0344 H   0  0  0  0  0  0  0  0  0  0  0  0
   -3.2828    0.6624    2.5805 H   0  0  0  0  0  0  0  0  0  0  0  0
    2.7651    2.2065   -0.7993 H   0  0  0  0  0  0  0  0  0  0  0  0
    2.3627    1.9810    0.9145 H   0  0  0  0  0  0  0  0  0  0  0  0
    0.4040   -1.5556    1.1100 H   0  0  0  0  0  0  0  0  0  0  0  0
    1.1168   -2.0714   -0.3581 H   0  0  0  0  0  0  0  0  0  0  0  0
    1.3575   -0.4268   -2.2525 H   0  0  0  0  0  0  0  0  0  0  0  0
    0.0618   -1.3991   -2.1135 H   0  0  0  0  0  0  0  0  0  0  0  0
  1  2  2  0
  1  5  1  0
  2  6  1  0
  3  4  1  0
  3  7  1  0
  4  8  1  0
  5  9  2  0
  6 10  2  0
  7 11  1  0
  8 12  1  0
  9 10  1  0
  9 12  1  0
 10 13  1  0
 11 12  1  0
 11 15  2  0
 12 14  1  0
  1 16  1  0
  2 17  1  0
  3 18  1  0
  3 19  1  0
  4 20  1  0
  4 21  1  0
  5 22  1  0
  6 23  1  0
  7 24  1  0
  7 25  1  0
  8 26  1  0
  8 27  1  0
 14 28  1  0
 14 29  1  0
M  END
