
     RDKit          3D

 28 30  0  0  0  0  0  0  0  0999 V2000
   -2.5301   -1.7982   -1.0828 C   0  0  0  0  0  0  0  0  0  0  0  0
    3.6657    0.4629    1.0647 C   0  0  0  0  0  0  0  0  0  0  0  0
    3.9290   -0.5846    0.1848 C   0  0  0  0  0  0  0  0  0  0  0  0
    2.3654    0.9581    1.2167 C   0  0  0  0  0  0  0  0  0  0  0  0
    2.9057   -1.1684   -0.5683 C   0  0  0  0  0  0  0  0  0  0  0  0
   -0.9517    1.6196    1.0552 C   0  0  0  0  0  0  0  0  0  0  0  0
   -2.3281    1.6862    0.3486 C   0  0  0  0  0  0  0  0  0  0  0  0
   -2.0353   -0.3579   -0.9630 C   0  0  0  0  0  0  0  0  0  0  0  0
    1.3171    0.3861    0.4703 C   0  0  0  0  0  0  0  0  0  0  0  0
   -0.0781    0.6265    0.3697 C   0  0  0  0  0  0  0  0  0  0  0  0
    1.6100   -0.6634   -0.4047 C   0  0  0  0  0  0  0  0  0  0  0  0
   -0.6029   -0.2771   -0.5340 C   0  0  0  0  0  0  0  0  0  0  0  0
   -2.8843    0.3522    0.0226 N   0  0  0  0  0  0  0  0  0  0  0  0
    0.4291   -1.0387   -1.0107 N   0  0  0  0  0  0  0  0  0  0  0  0
   -3.5911   -1.8265   -1.3558 H   0  0  0  0  0  0  0  0  0  0  0  0
   -1.9793   -2.3407   -1.8593 H   0  0  0  0  0  0  0  0  0  0  0  0
   -2.4065   -2.3506   -0.1436 H   0  0  0  0  0  0  0  0  0  0  0  0
    4.4769    0.9022    1.6399 H   0  0  0  0  0  0  0  0  0  0  0  0
    4.9465   -0.9546    0.0807 H   0  0  0  0  0  0  0  0  0  0  0  0
    2.1695    1.7751    1.9040 H   0  0  0  0  0  0  0  0  0  0  0  0
    3.1155   -1.9832   -1.2531 H   0  0  0  0  0  0  0  0  0  0  0  0
   -0.4876    2.6117    1.0540 H   0  0  0  0  0  0  0  0  0  0  0  0
   -1.0892    1.3112    2.0985 H   0  0  0  0  0  0  0  0  0  0  0  0
   -2.2512    2.2779   -0.5728 H   0  0  0  0  0  0  0  0  0  0  0  0
   -3.0361    2.2138    0.9975 H   0  0  0  0  0  0  0  0  0  0  0  0
   -2.1440    0.1334   -1.9379 H   0  0  0  0  0  0  0  0  0  0  0  0
   -2.8868   -0.2011    0.8800 H   0  0  0  0  0  0  0  0  0  0  0  0
    0.3519   -1.7720   -1.7013 H   0  0  0  0  0  0  0  0  0  0  0  0
  1  8  1  0
  2  3  2  0
  2  4  1  0
  3  5  1  0
  4  9  2  0
  5 11  2  0
  6  7  1  0
  6 10  1  0
  7 13  1  0
  8 12  1  0
  8 13  1  0
  9 10  1  0
  9 11  1  0
 10 12  2  0
 11 14  1  0
 12 14  1  0
  1 15  1  0
  1 16  1  0
  1 17  1  0
  2 18  1  0
  3 19  1  0
  4 20  1  0
  5 21  1  0
  6 22  1  0
  6 23  1  0
  7 24  1  0
  7 25  1  0
  8 26  1  0
 13 27  1  0
 14 28  1  0
M  END
