
     RDKit          3D

 30 31  0  0  0  0  0  0  0  0999 V2000
   -3.2200    0.4499    1.2570 C   0  0  0  0  0  0  0  0  0  0  0  0
    0.3238   -3.0165   -0.6598 C   0  0  0  0  0  0  0  0  0  0  0  0
    2.1368   -1.0931    1.9904 C   0  0  0  0  0  0  0  0  0  0  0  0
   -3.4437   -0.0021    0.0151 C   0  0  0  0  0  0  0  0  0  0  0  0
   -2.4397   -0.2240   -1.0873 C   0  0  0  0  0  0  0  0  0  0  0  0
   -0.6265    1.5214   -1.0184 C   0  0  0  0  0  0  0  0  0  0  0  0
    2.5459    2.9227   -0.4456 C   0  0  0  0  0  0  0  0  0  0  0  0
   -1.0121    0.1854   -0.7936 C   0  0  0  0  0  0  0  0  0  0  0  0
    0.6710    1.8888   -0.7311 C   0  0  0  0  0  0  0  0  0  0  0  0
   -0.0641   -0.7391   -0.2855 C   0  0  0  0  0  0  0  0  0  0  0  0
    1.5821    0.9982   -0.2177 C   0  0  0  0  0  0  0  0  0  0  0  0
    1.2370   -0.3161    0.0378 C   0  0  0  0  0  0  0  0  0  0  0  0
   -0.5064   -2.0208   -0.0638 O   0  0  0  0  0  0  0  0  0  0  0  0
    2.1632   -1.1733    0.5651 O   0  0  0  0  0  0  0  0  0  0  0  0
    1.1932    3.1336   -0.8977 O   0  0  0  0  0  0  0  0  0  0  0  0
    2.7944    1.5783    0.0084 O   0  0  0  0  0  0  0  0  0  0  0  0
   -2.2280    0.7116    1.6103 H   0  0  0  0  0  0  0  0  0  0  0  0
   -4.0393    0.5595    1.9609 H   0  0  0  0  0  0  0  0  0  0  0  0
   -0.3170   -3.8607   -0.9329 H   0  0  0  0  0  0  0  0  0  0  0  0
    0.8189   -2.6660   -1.5728 H   0  0  0  0  0  0  0  0  0  0  0  0
    1.0575   -3.3810    0.0647 H   0  0  0  0  0  0  0  0  0  0  0  0
    2.4396   -0.0997    2.3388 H   0  0  0  0  0  0  0  0  0  0  0  0
    1.1478   -1.3508    2.3858 H   0  0  0  0  0  0  0  0  0  0  0  0
    2.8556   -1.8207    2.3791 H   0  0  0  0  0  0  0  0  0  0  0  0
   -4.4692   -0.2522   -0.2530 H   0  0  0  0  0  0  0  0  0  0  0  0
   -2.7807    0.3299   -1.9723 H   0  0  0  0  0  0  0  0  0  0  0  0
   -2.4732   -1.2787   -1.3863 H   0  0  0  0  0  0  0  0  0  0  0  0
   -1.3294    2.2532   -1.4037 H   0  0  0  0  0  0  0  0  0  0  0  0
    3.2313    3.1477   -1.2710 H   0  0  0  0  0  0  0  0  0  0  0  0
    2.7510    3.6146    0.3793 H   0  0  0  0  0  0  0  0  0  0  0  0
  1  4  2  3
  2 13  1  0
  3 14  1  0
  4  5  1  0
  5  8  1  0
  6  8  2  0
  6  9  1  0
  7 15  1  0
  7 16  1  0
  8 10  1  0
  9 11  2  0
  9 15  1  0
 10 12  2  0
 10 13  1  0
 11 12  1  0
 11 16  1  0
 12 14  1  0
  1 17  1  0
  1 18  1  0
  2 19  1  0
  2 20  1  0
  2 21  1  0
  3 22  1  0
  3 23  1  0
  3 24  1  0
  4 25  1  0
  5 26  1  0
  5 27  1  0
  6 28  1  0
  7 29  1  0
  7 30  1  0
M  END
