
     RDKit          3D

 32 33  0  0  0  0  0  0  0  0999 V2000
   -2.4796    1.8505   -2.2823 C   0  0  0  0  0  0  0  0  0  0  0  0
   -1.1208   -2.0859   -0.1010 C   0  0  0  0  0  0  0  0  0  0  0  0
    2.4134   -1.1981   -0.3435 C   0  0  0  0  0  0  0  0  0  0  0  0
    1.6648    0.1842    1.4801 C   0  0  0  0  0  0  0  0  0  0  0  0
    3.7306   -1.0634    1.6848 C   0  0  0  0  0  0  0  0  0  0  0  0
   -1.0571    2.0859   -0.1962 C   0  0  0  0  0  0  0  0  0  0  0  0
   -2.3021    1.4190   -0.8265 C   0  0  0  0  0  0  0  0  0  0  0  0
   -1.1081   -0.5561   -0.0217 C   0  0  0  0  0  0  0  0  0  0  0  0
    1.4522   -0.3165    0.1825 C   0  0  0  0  0  0  0  0  0  0  0  0
    3.5321   -1.5591    0.4058 C   0  0  0  0  0  0  0  0  0  0  0  0
    2.7913   -0.1907    2.2104 C   0  0  0  0  0  0  0  0  0  0  0  0
    0.2131    0.0847   -0.6080 C   0  0  0  0  0  0  0  0  0  0  0  0
    4.4293   -2.4047   -0.1179 F   0  0  0  0  0  0  0  0  0  0  0  0
    2.9646    0.3000    3.4446 F   0  0  0  0  0  0  0  0  0  0  0  0
   -2.2826   -0.0586   -0.7856 N   0  0  0  0  0  0  0  0  0  0  0  0
    0.3467   -0.3310   -1.9680 O   0  0  0  0  0  0  0  0  0  0  0  0
    0.1786    1.5207   -0.6320 O   0  0  0  0  0  0  0  0  0  0  0  0
   -2.5924    2.9382   -2.3483 H   0  0  0  0  0  0  0  0  0  0  0  0
   -3.3787    1.4012   -2.7189 H   0  0  0  0  0  0  0  0  0  0  0  0
   -1.6234    1.5674   -2.9029 H   0  0  0  0  0  0  0  0  0  0  0  0
   -1.0188   -2.4447   -1.1309 H   0  0  0  0  0  0  0  0  0  0  0  0
   -2.0586   -2.4878    0.2998 H   0  0  0  0  0  0  0  0  0  0  0  0
   -0.3077   -2.5181    0.4907 H   0  0  0  0  0  0  0  0  0  0  0  0
    2.3053   -1.6091   -1.3447 H   0  0  0  0  0  0  0  0  0  0  0  0
    0.9649    0.8820    1.9311 H   0  0  0  0  0  0  0  0  0  0  0  0
    4.6032   -1.3494    2.2587 H   0  0  0  0  0  0  0  0  0  0  0  0
   -1.1000    2.0159    0.8976 H   0  0  0  0  0  0  0  0  0  0  0  0
   -1.0338    3.1546   -0.4360 H   0  0  0  0  0  0  0  0  0  0  0  0
   -3.1797    1.7672   -0.2676 H   0  0  0  0  0  0  0  0  0  0  0  0
   -1.2335   -0.2729    1.0316 H   0  0  0  0  0  0  0  0  0  0  0  0
   -3.1436   -0.4048   -0.3603 H   0  0  0  0  0  0  0  0  0  0  0  0
   -0.5697   -0.3205   -2.3000 H   0  0  0  0  0  0  0  0  0  0  0  0
  1  7  1  0
  2  8  1  0
  3  9  2  0
  3 10  1  0
  4  9  1  0
  4 11  2  0
  5 10  2  0
  5 11  1  0
  6  7  1  0
  6 17  1  0
  7 15  1  0
  8 12  1  0
  8 15  1  0
  9 12  1  0
 10 13  1  0
 11 14  1  0
 12 16  1  0
 12 17  1  0
  1 18  1  0
  1 19  1  0
  1 20  1  0
  2 21  1  0
  2 22  1  0
  2 23  1  0
  3 24  1  0
  4 25  1  0
  5 26  1  0
  6 27  1  0
  6 28  1  0
  7 29  1  0
  8 30  1  0
 15 31  1  0
 16 32  1  0
M  END
