
     RDKit          3D

 29 30  0  0  0  0  0  0  0  0999 V2000
   -1.7957    1.5858   -1.2971 C   0  0  0  0  0  0  0  0  0  0  0  0
   -4.0342    0.0146    1.2288 C   0  0  0  0  0  0  0  0  0  0  0  0
    4.6245   -0.3308    0.0758 C   0  0  0  0  0  0  0  0  0  0  0  0
    4.2542   -0.0981    1.4034 C   0  0  0  0  0  0  0  0  0  0  0  0
    3.6590   -0.5713   -0.9131 C   0  0  0  0  0  0  0  0  0  0  0  0
    2.9097   -0.0974    1.7897 C   0  0  0  0  0  0  0  0  0  0  0  0
   -1.4085   -0.7263   -0.3169 C   0  0  0  0  0  0  0  0  0  0  0  0
    1.0670   -0.7689   -1.2167 C   0  0  0  0  0  0  0  0  0  0  0  0
   -2.0994    0.6430   -0.1248 C   0  0  0  0  0  0  0  0  0  0  0  0
    2.3022   -0.5741   -0.5445 C   0  0  0  0  0  0  0  0  0  0  0  0
    0.0758   -0.6361   -0.2659 C   0  0  0  0  0  0  0  0  0  0  0  0
    1.9752   -0.3388    0.7856 C   0  0  0  0  0  0  0  0  0  0  0  0
   -3.5695    0.5322   -0.0500 N   0  0  0  0  0  0  0  0  0  0  0  0
    0.6250   -0.3797    0.9555 O   0  0  0  0  0  0  0  0  0  0  0  0
   -2.1078    1.1522   -2.2541 H   0  0  0  0  0  0  0  0  0  0  0  0
   -2.3161    2.5429   -1.1745 H   0  0  0  0  0  0  0  0  0  0  0  0
   -0.7260    1.8101   -1.3596 H   0  0  0  0  0  0  0  0  0  0  0  0
   -3.6800    0.6319    2.0606 H   0  0  0  0  0  0  0  0  0  0  0  0
   -3.7243   -1.0212    1.3929 H   0  0  0  0  0  0  0  0  0  0  0  0
   -5.1284    0.0378    1.2497 H   0  0  0  0  0  0  0  0  0  0  0  0
    5.6779   -0.3254   -0.1963 H   0  0  0  0  0  0  0  0  0  0  0  0
    5.0233    0.0860    2.1506 H   0  0  0  0  0  0  0  0  0  0  0  0
    3.9578   -0.7507   -1.9412 H   0  0  0  0  0  0  0  0  0  0  0  0
    2.6037    0.0811    2.8129 H   0  0  0  0  0  0  0  0  0  0  0  0
   -1.7233   -1.4258    0.4663 H   0  0  0  0  0  0  0  0  0  0  0  0
   -1.7157   -1.1715   -1.2719 H   0  0  0  0  0  0  0  0  0  0  0  0
    0.9186   -0.9773   -2.2666 H   0  0  0  0  0  0  0  0  0  0  0  0
   -1.7267    1.1281    0.7870 H   0  0  0  0  0  0  0  0  0  0  0  0
   -3.9182   -0.0523   -0.8087 H   0  0  0  0  0  0  0  0  0  0  0  0
  1  9  1  0
  2 13  1  0
  3  4  2  0
  3  5  1  0
  4  6  1  0
  5 10  2  0
  6 12  2  0
  7  9  1  0
  7 11  1  0
  8 10  1  0
  8 11  2  0
  9 13  1  0
 10 12  1  0
 11 14  1  0
 12 14  1  0
  1 15  1  0
  1 16  1  0
  1 17  1  0
  2 18  1  0
  2 19  1  0
  2 20  1  0
  3 21  1  0
  4 22  1  0
  5 23  1  0
  6 24  1  0
  7 25  1  0
  7 26  1  0
  8 27  1  0
  9 28  1  0
 13 29  1  0
M  END
