
     RDKit          3D

 31 33  0  0  0  0  0  0  0  0999 V2000
   -3.0406    1.6477    1.1060 C   0  0  0  0  0  0  0  0  0  0  0  0
    0.7267   -0.8741    1.0979 C   0  0  0  0  0  0  0  0  0  0  0  0
    1.9547   -1.5437    1.1761 C   0  0  0  0  0  0  0  0  0  0  0  0
   -2.2163   -0.9952   -0.9007 C   0  0  0  0  0  0  0  0  0  0  0  0
   -2.0136    0.2581   -1.7600 C   0  0  0  0  0  0  0  0  0  0  0  0
    1.6534    0.7016   -0.5011 C   0  0  0  0  0  0  0  0  0  0  0  0
    4.8773   -0.6996   -0.5813 C   0  0  0  0  0  0  0  0  0  0  0  0
   -1.9889    0.5309    0.9904 C   0  0  0  0  0  0  0  0  0  0  0  0
    0.5531    0.2522    0.2588 C   0  0  0  0  0  0  0  0  0  0  0  0
    2.9968   -1.0692    0.4129 C   0  0  0  0  0  0  0  0  0  0  0  0
    2.8506    0.0241   -0.4041 C   0  0  0  0  0  0  0  0  0  0  0  0
   -0.7589    1.0290    0.1594 C   0  0  0  0  0  0  0  0  0  0  0  0
   -2.6427   -0.6975    0.4745 N   0  0  0  0  0  0  0  0  0  0  0  0
   -1.0896    1.2141   -1.2310 O   0  0  0  0  0  0  0  0  0  0  0  0
    4.2512   -1.5912    0.3644 O   0  0  0  0  0  0  0  0  0  0  0  0
    3.9953    0.3314   -1.0706 O   0  0  0  0  0  0  0  0  0  0  0  0
   -3.8694    1.3379    1.7528 H   0  0  0  0  0  0  0  0  0  0  0  0
   -3.4586    1.9256    0.1334 H   0  0  0  0  0  0  0  0  0  0  0  0
   -2.6001    2.5463    1.5515 H   0  0  0  0  0  0  0  0  0  0  0  0
   -0.0982   -1.2593    1.6934 H   0  0  0  0  0  0  0  0  0  0  0  0
    2.0803   -2.4103    1.8153 H   0  0  0  0  0  0  0  0  0  0  0  0
   -1.2873   -1.5735   -0.8641 H   0  0  0  0  0  0  0  0  0  0  0  0
   -2.9618   -1.6468   -1.3698 H   0  0  0  0  0  0  0  0  0  0  0  0
   -2.9703    0.7713   -1.9092 H   0  0  0  0  0  0  0  0  0  0  0  0
   -1.6523   -0.0287   -2.7532 H   0  0  0  0  0  0  0  0  0  0  0  0
    1.5649    1.5623   -1.1576 H   0  0  0  0  0  0  0  0  0  0  0  0
    5.2355   -1.2883   -1.4338 H   0  0  0  0  0  0  0  0  0  0  0  0
    5.7379   -0.2237   -0.0970 H   0  0  0  0  0  0  0  0  0  0  0  0
   -1.6647    0.3193    2.0163 H   0  0  0  0  0  0  0  0  0  0  0  0
   -0.5091    2.0309    0.5352 H   0  0  0  0  0  0  0  0  0  0  0  0
   -3.6554   -0.5815    0.4951 H   0  0  0  0  0  0  0  0  0  0  0  0
  1  8  1  0
  2  3  2  0
  2  9  1  0
  3 10  1  0
  4  5  1  0
  4 13  1  0
  5 14  1  0
  6  9  2  0
  6 11  1  0
  7 15  1  0
  7 16  1  0
  8 12  1  0
  8 13  1  0
  9 12  1  0
 10 11  2  0
 10 15  1  0
 11 16  1  0
 12 14  1  0
  1 17  1  0
  1 18  1  0
  1 19  1  0
  2 20  1  0
  3 21  1  0
  4 22  1  0
  4 23  1  0
  5 24  1  0
  5 25  1  0
  6 26  1  0
  7 27  1  0
  7 28  1  0
  8 29  1  0
 12 30  1  0
 13 31  1  0
M  END
