
     RDKit          3D

 34 34  0  0  0  0  0  0  0  0999 V2000
    3.1197    0.1919    0.6090 C   0  0  0  0  0  0  0  0  0  0  0  0
    0.4568    3.6043   -0.1647 C   0  0  0  0  0  0  0  0  0  0  0  0
   -2.5057   -3.1664    0.1320 C   0  0  0  0  0  0  0  0  0  0  0  0
    1.5366   -0.3131   -1.3321 C   0  0  0  0  0  0  0  0  0  0  0  0
   -0.6716   -1.0750   -0.3917 C   0  0  0  0  0  0  0  0  0  0  0  0
   -1.3714    1.5088    0.3573 C   0  0  0  0  0  0  0  0  0  0  0  0
    2.6081   -0.8660   -0.3687 C   0  0  0  0  0  0  0  0  0  0  0  0
    0.2125   -0.0102   -0.6541 C   0  0  0  0  0  0  0  0  0  0  0  0
   -2.2565    0.4429    0.6176 C   0  0  0  0  0  0  0  0  0  0  0  0
   -0.1432    1.2932   -0.2722 C   0  0  0  0  0  0  0  0  0  0  0  0
   -1.8999   -0.8577    0.2381 C   0  0  0  0  0  0  0  0  0  0  0  0
   -3.5756    0.7071    1.3000 C   0  0  0  0  0  0  0  0  0  0  0  0
   -3.7637    2.0287    1.5976 F   0  0  0  0  0  0  0  0  0  0  0  0
   -3.7082    0.0547    2.4890 F   0  0  0  0  0  0  0  0  0  0  0  0
   -4.6546    0.3574    0.5449 F   0  0  0  0  0  0  0  0  0  0  0  0
    3.7511   -1.3796   -1.1372 N   0  0  0  0  0  0  0  0  0  0  0  0
    0.7704    2.2727   -0.5512 O   0  0  0  0  0  0  0  0  0  0  0  0
   -2.8119   -1.8350    0.5279 O   0  0  0  0  0  0  0  0  0  0  0  0
    2.3205    0.5360    1.2731 H   0  0  0  0  0  0  0  0  0  0  0  0
    3.9128   -0.2140    1.2475 H   0  0  0  0  0  0  0  0  0  0  0  0
    3.5247    1.0634    0.0827 H   0  0  0  0  0  0  0  0  0  0  0  0
    0.3426    3.6833    0.9214 H   0  0  0  0  0  0  0  0  0  0  0  0
   -0.4356    3.9663   -0.6856 H   0  0  0  0  0  0  0  0  0  0  0  0
    1.2952    4.2433   -0.4580 H   0  0  0  0  0  0  0  0  0  0  0  0
   -3.3446   -3.8038    0.4274 H   0  0  0  0  0  0  0  0  0  0  0  0
   -2.3980   -3.2402   -0.9552 H   0  0  0  0  0  0  0  0  0  0  0  0
   -1.6113   -3.5339    0.6456 H   0  0  0  0  0  0  0  0  0  0  0  0
    1.9150    0.5696   -1.8630 H   0  0  0  0  0  0  0  0  0  0  0  0
    1.3372   -1.0506   -2.1228 H   0  0  0  0  0  0  0  0  0  0  0  0
   -0.3694   -2.0729   -0.6961 H   0  0  0  0  0  0  0  0  0  0  0  0
   -1.6716    2.5081    0.6618 H   0  0  0  0  0  0  0  0  0  0  0  0
    2.1920   -1.7003    0.2090 H   0  0  0  0  0  0  0  0  0  0  0  0
    4.4482   -1.7617   -0.4991 H   0  0  0  0  0  0  0  0  0  0  0  0
    3.4495   -2.1513   -1.7301 H   0  0  0  0  0  0  0  0  0  0  0  0
  1  7  1  0
  2 17  1  0
  3 18  1  0
  4  7  1  0
  4  8  1  0
  5  8  2  0
  5 11  1  0
  6  9  1  0
  6 10  2  0
  7 16  1  0
  8 10  1  0
  9 11  2  0
  9 12  1  0
 10 17  1  0
 11 18  1  0
 12 13  1  0
 12 14  1  0
 12 15  1  0
  1 19  1  0
  1 20  1  0
  1 21  1  0
  2 22  1  0
  2 23  1  0
  2 24  1  0
  3 25  1  0
  3 26  1  0
  3 27  1  0
  4 28  1  0
  4 29  1  0
  5 30  1  0
  6 31  1  0
  7 32  1  0
 16 33  1  0
 16 34  1  0
M  END
