
     RDKit          3D

 31 32  0  0  0  0  0  0  0  0999 V2000
   -2.8205    1.7064   -0.7942 C   0  0  0  0  0  0  0  0  0  0  0  0
   -3.8269   -0.5238   -0.8030 C   0  0  0  0  0  0  0  0  0  0  0  0
    3.2680    0.4545   -1.5403 C   0  0  0  0  0  0  0  0  0  0  0  0
    4.2522   -0.3684   -0.9986 C   0  0  0  0  0  0  0  0  0  0  0  0
    2.0370    0.6151   -0.8934 C   0  0  0  0  0  0  0  0  0  0  0  0
    4.0385   -1.0517    0.2019 C   0  0  0  0  0  0  0  0  0  0  0  0
   -0.6358    0.5633    1.0764 C   0  0  0  0  0  0  0  0  0  0  0  0
   -1.5923   -0.2305    0.1871 C   0  0  0  0  0  0  0  0  0  0  0  0
    1.0528   -0.9770    2.2482 C   0  0  0  0  0  0  0  0  0  0  0  0
    0.6827   -0.1340    1.2188 C   0  0  0  0  0  0  0  0  0  0  0  0
    1.7945   -0.0649    0.3182 C   0  0  0  0  0  0  0  0  0  0  0  0
    2.8020   -0.8796    0.8356 C   0  0  0  0  0  0  0  0  0  0  0  0
    2.3269   -1.4148    2.0099 N   0  0  0  0  0  0  0  0  0  0  0  0
   -2.9524    0.4219   -0.0221 N   0  0  0  0  0  4  0  0  0  0  0  0
   -3.5496    0.6765    1.1846 O   0  0  0  0  0  1  0  0  0  0  0  0
   -2.2803    1.4947   -1.7200 H   0  0  0  0  0  0  0  0  0  0  0  0
   -2.2885    2.4273   -0.1704 H   0  0  0  0  0  0  0  0  0  0  0  0
   -3.8305    2.0726   -0.9997 H   0  0  0  0  0  0  0  0  0  0  0  0
   -4.8025   -0.0463   -0.9295 H   0  0  0  0  0  0  0  0  0  0  0  0
   -3.3480   -0.7133   -1.7670 H   0  0  0  0  0  0  0  0  0  0  0  0
   -3.9271   -1.4426   -0.2187 H   0  0  0  0  0  0  0  0  0  0  0  0
    3.4576    0.9806   -2.4725 H   0  0  0  0  0  0  0  0  0  0  0  0
    5.2034   -0.4793   -1.5142 H   0  0  0  0  0  0  0  0  0  0  0  0
    1.2811    1.2648   -1.3231 H   0  0  0  0  0  0  0  0  0  0  0  0
    4.8089   -1.6890    0.6234 H   0  0  0  0  0  0  0  0  0  0  0  0
   -1.0794    0.7142    2.0680 H   0  0  0  0  0  0  0  0  0  0  0  0
   -0.4603    1.5635    0.6661 H   0  0  0  0  0  0  0  0  0  0  0  0
   -1.1743   -0.3935   -0.8137 H   0  0  0  0  0  0  0  0  0  0  0  0
   -1.8014   -1.2083    0.6391 H   0  0  0  0  0  0  0  0  0  0  0  0
    0.5152   -1.2981    3.1312 H   0  0  0  0  0  0  0  0  0  0  0  0
    2.8491   -2.0405    2.6073 H   0  0  0  0  0  0  0  0  0  0  0  0
  1 14  1  0
  2 14  1  0
  3  4  2  0
  3  5  1  0
  4  6  1  0
  5 11  2  0
  6 12  2  0
  7  8  1  0
  7 10  1  0
  8 14  1  0
  9 10  2  0
  9 13  1  0
 10 11  1  0
 11 12  1  0
 12 13  1  0
 14 15  1  0
  1 16  1  0
  1 17  1  0
  1 18  1  0
  2 19  1  0
  2 20  1  0
  2 21  1  0
  3 22  1  0
  4 23  1  0
  5 24  1  0
  6 25  1  0
  7 26  1  0
  7 27  1  0
  8 28  1  0
  8 29  1  0
  9 30  1  0
 13 31  1  0
M  CHG  2  14   1  15  -1
M  END
