
     RDKit          3D

 31 32  0  0  0  0  0  0  0  0999 V2000
    3.6738    1.7799    0.0002 C   0  0  0  0  0  0  0  0  0  0  0  0
    3.1272    1.6426   -1.2746 C   0  0  0  0  0  0  0  0  0  0  0  0
    3.3702    0.8492    0.9919 C   0  0  0  0  0  0  0  0  0  0  0  0
    2.2757    0.5734   -1.5595 C   0  0  0  0  0  0  0  0  0  0  0  0
    2.5202   -0.2206    0.7090 C   0  0  0  0  0  0  0  0  0  0  0  0
   -1.9370   -1.2773    1.3904 C   0  0  0  0  0  0  0  0  0  0  0  0
   -3.4229    0.5289    0.2977 C   0  0  0  0  0  0  0  0  0  0  0  0
    1.0330   -1.5205   -0.8661 C   0  0  0  0  0  0  0  0  0  0  0  0
   -1.1715   -0.2862   -0.6508 C   0  0  0  0  0  0  0  0  0  0  0  0
    1.9656   -0.3711   -0.5704 C   0  0  0  0  0  0  0  0  0  0  0  0
   -2.4511   -0.6323    0.0974 C   0  0  0  0  0  0  0  0  0  0  0  0
   -0.6229   -1.8889    0.9657 C   0  0  0  0  0  0  0  0  0  0  0  0
   -2.8983    1.6157    1.1140 N   0  0  0  0  0  0  0  0  0  0  0  0
   -0.2752   -1.3472   -0.2635 N   0  0  0  0  0  0  0  0  0  0  0  0
    0.0248   -2.6911    1.6187 O   0  0  0  0  0  0  0  0  0  0  0  0
    4.3371    2.6117    0.2216 H   0  0  0  0  0  0  0  0  0  0  0  0
    3.3656    2.3686   -2.0475 H   0  0  0  0  0  0  0  0  0  0  0  0
    3.7941    0.9545    1.9872 H   0  0  0  0  0  0  0  0  0  0  0  0
    1.8569    0.4819   -2.5588 H   0  0  0  0  0  0  0  0  0  0  0  0
    2.2874   -0.9406    1.4926 H   0  0  0  0  0  0  0  0  0  0  0  0
   -1.7378   -0.5530    2.1854 H   0  0  0  0  0  0  0  0  0  0  0  0
   -2.6216   -2.0502    1.7497 H   0  0  0  0  0  0  0  0  0  0  0  0
   -3.7250    0.9286   -0.6769 H   0  0  0  0  0  0  0  0  0  0  0  0
   -4.3293    0.1473    0.7816 H   0  0  0  0  0  0  0  0  0  0  0  0
    0.8881   -1.6367   -1.9464 H   0  0  0  0  0  0  0  0  0  0  0  0
    1.4833   -2.4518   -0.5024 H   0  0  0  0  0  0  0  0  0  0  0  0
   -1.3144   -0.2893   -1.7355 H   0  0  0  0  0  0  0  0  0  0  0  0
   -0.7388    0.6685   -0.3372 H   0  0  0  0  0  0  0  0  0  0  0  0
   -2.9755   -1.4116   -0.4754 H   0  0  0  0  0  0  0  0  0  0  0  0
   -2.1508    2.1088    0.6272 H   0  0  0  0  0  0  0  0  0  0  0  0
   -3.6307    2.3088    1.2706 H   0  0  0  0  0  0  0  0  0  0  0  0
  1  2  2  0
  1  3  1  0
  2  4  1  0
  3  5  2  0
  4 10  2  0
  5 10  1  0
  6 11  1  0
  6 12  1  0
  7 11  1  0
  7 13  1  0
  8 10  1  0
  8 14  1  0
  9 11  1  0
  9 14  1  0
 12 14  1  0
 12 15  2  0
  1 16  1  0
  2 17  1  0
  3 18  1  0
  4 19  1  0
  5 20  1  0
  6 21  1  0
  6 22  1  0
  7 23  1  0
  7 24  1  0
  8 25  1  0
  8 26  1  0
  9 27  1  0
  9 28  1  0
 11 29  1  0
 13 30  1  0
 13 31  1  0
M  END
