
     RDKit          3D

 30 31  0  0  0  0  0  0  0  0999 V2000
   -0.9262    0.9928   -1.6947 C   0  0  0  0  0  0  0  0  0  0  0  0
    4.0071    0.2889   -0.1926 C   0  0  0  0  0  0  0  0  0  0  0  0
    3.3751    1.1365    0.7122 C   0  0  0  0  0  0  0  0  0  0  0  0
    3.2692   -0.6864   -0.8582 C   0  0  0  0  0  0  0  0  0  0  0  0
   -2.3466   -1.4313    0.7821 C   0  0  0  0  0  0  0  0  0  0  0  0
    2.0057    1.0064    0.9510 C   0  0  0  0  0  0  0  0  0  0  0  0
    1.8983   -0.8174   -0.6195 C   0  0  0  0  0  0  0  0  0  0  0  0
   -0.8720   -1.4553    0.3865 C   0  0  0  0  0  0  0  0  0  0  0  0
   -3.1056   -0.3345    0.0405 C   0  0  0  0  0  0  0  0  0  0  0  0
   -1.0712    1.0282   -0.1666 C   0  0  0  0  0  0  0  0  0  0  0  0
    1.2451    0.0248    0.2918 C   0  0  0  0  0  0  0  0  0  0  0  0
   -0.2481   -0.0609    0.5810 C   0  0  0  0  0  0  0  0  0  0  0  0
   -2.4931    0.9797    0.2300 N   0  0  0  0  0  0  0  0  0  0  0  0
   -1.1960    0.0218   -2.1201 H   0  0  0  0  0  0  0  0  0  0  0  0
    0.1023    1.2165   -1.9956 H   0  0  0  0  0  0  0  0  0  0  0  0
   -1.5638    1.7519   -2.1624 H   0  0  0  0  0  0  0  0  0  0  0  0
    5.0728    0.3884   -0.3796 H   0  0  0  0  0  0  0  0  0  0  0  0
    3.9466    1.8997    1.2337 H   0  0  0  0  0  0  0  0  0  0  0  0
    3.7605   -1.3478   -1.5673 H   0  0  0  0  0  0  0  0  0  0  0  0
   -2.4321   -1.2714    1.8645 H   0  0  0  0  0  0  0  0  0  0  0  0
   -2.8016   -2.4050    0.5680 H   0  0  0  0  0  0  0  0  0  0  0  0
    1.5307    1.6795    1.6625 H   0  0  0  0  0  0  0  0  0  0  0  0
    1.3557   -1.5842   -1.1649 H   0  0  0  0  0  0  0  0  0  0  0  0
   -0.3423   -2.1981    0.9953 H   0  0  0  0  0  0  0  0  0  0  0  0
   -0.7942   -1.7852   -0.6557 H   0  0  0  0  0  0  0  0  0  0  0  0
   -4.1333   -0.2976    0.4188 H   0  0  0  0  0  0  0  0  0  0  0  0
   -3.1754   -0.5767   -1.0261 H   0  0  0  0  0  0  0  0  0  0  0  0
   -0.7010    2.0098    0.1574 H   0  0  0  0  0  0  0  0  0  0  0  0
   -0.3484    0.1499    1.6581 H   0  0  0  0  0  0  0  0  0  0  0  0
   -3.0182    1.6770   -0.2974 H   0  0  0  0  0  0  0  0  0  0  0  0
  1 10  1  0
  2  3  2  0
  2  4  1  0
  3  6  1  0
  4  7  2  0
  5  8  1  0
  5  9  1  0
  6 11  2  0
  7 11  1  0
  8 12  1  0
  9 13  1  0
 10 12  1  0
 10 13  1  0
 11 12  1  0
  1 14  1  0
  1 15  1  0
  1 16  1  0
  2 17  1  0
  3 18  1  0
  4 19  1  0
  5 20  1  0
  5 21  1  0
  6 22  1  0
  7 23  1  0
  8 24  1  0
  8 25  1  0
  9 26  1  0
  9 27  1  0
 10 28  1  0
 12 29  1  0
 13 30  1  0
M  END
