
     RDKit          3D

 31 31  0  0  0  0  0  0  0  0999 V2000
    4.8449    1.0479    0.1711 C   0  0  0  0  0  0  0  0  0  0  0  0
   -1.9985   -1.7646    1.3863 C   0  0  0  0  0  0  0  0  0  0  0  0
   -3.7336   -0.5679   -0.7735 C   0  0  0  0  0  0  0  0  0  0  0  0
   -2.6013    1.5246   -0.4490 C   0  0  0  0  0  0  0  0  0  0  0  0
    2.6541    0.2934    1.1569 C   0  0  0  0  0  0  0  0  0  0  0  0
    2.8666    0.4026   -1.2439 C   0  0  0  0  0  0  0  0  0  0  0  0
    1.3293   -0.1364    1.0254 C   0  0  0  0  0  0  0  0  0  0  0  0
    1.5441   -0.0268   -1.3781 C   0  0  0  0  0  0  0  0  0  0  0  0
    3.4346    0.5568    0.0250 C   0  0  0  0  0  0  0  0  0  0  0  0
   -1.6877   -0.4619    0.6455 C   0  0  0  0  0  0  0  0  0  0  0  0
    0.7641   -0.2899   -0.2447 C   0  0  0  0  0  0  0  0  0  0  0  0
   -0.6432   -0.7452   -0.4519 C   0  0  0  0  0  0  0  0  0  0  0  0
   -2.9093    0.2211    0.1409 N   0  0  0  0  0  0  0  0  0  0  0  0
   -0.9091   -1.3358   -1.4996 O   0  0  0  0  0  0  0  0  0  0  0  0
    4.8565    2.1409    0.2237 H   0  0  0  0  0  0  0  0  0  0  0  0
    5.3069    0.6445    1.0784 H   0  0  0  0  0  0  0  0  0  0  0  0
    5.4600    0.7273   -0.6762 H   0  0  0  0  0  0  0  0  0  0  0  0
   -1.1048   -2.1331    1.9023 H   0  0  0  0  0  0  0  0  0  0  0  0
   -2.3207   -2.5610    0.7071 H   0  0  0  0  0  0  0  0  0  0  0  0
   -2.7775   -1.6132    2.1412 H   0  0  0  0  0  0  0  0  0  0  0  0
   -4.0290   -1.5245   -0.3328 H   0  0  0  0  0  0  0  0  0  0  0  0
   -4.6707   -0.0364   -0.9787 H   0  0  0  0  0  0  0  0  0  0  0  0
   -3.2515   -0.7573   -1.7368 H   0  0  0  0  0  0  0  0  0  0  0  0
   -3.5248    2.0711   -0.6715 H   0  0  0  0  0  0  0  0  0  0  0  0
   -2.0250    1.4408   -1.3770 H   0  0  0  0  0  0  0  0  0  0  0  0
   -2.0361    2.1460    0.2546 H   0  0  0  0  0  0  0  0  0  0  0  0
    3.0775    0.4140    2.1524 H   0  0  0  0  0  0  0  0  0  0  0  0
    3.4503    0.6105   -2.1383 H   0  0  0  0  0  0  0  0  0  0  0  0
    0.7725   -0.3594    1.9304 H   0  0  0  0  0  0  0  0  0  0  0  0
    1.1227   -0.1521   -2.3742 H   0  0  0  0  0  0  0  0  0  0  0  0
   -1.2611    0.2240    1.3851 H   0  0  0  0  0  0  0  0  0  0  0  0
  1  9  1  0
  2 10  1  0
  3 13  1  0
  4 13  1  0
  5  7  2  0
  5  9  1  0
  6  8  1  0
  6  9  2  0
  7 11  1  0
  8 11  2  0
 10 12  1  0
 10 13  1  0
 11 12  1  0
 12 14  2  0
  1 15  1  0
  1 16  1  0
  1 17  1  0
  2 18  1  0
  2 19  1  0
  2 20  1  0
  3 21  1  0
  3 22  1  0
  3 23  1  0
  4 24  1  0
  4 25  1  0
  4 26  1  0
  5 27  1  0
  6 28  1  0
  7 29  1  0
  8 30  1  0
 10 31  1  0
M  END
