
     RDKit          3D

 31 32  0  0  0  0  0  0  0  0999 V2000
   -2.9245    1.1568    1.3253 C   0  0  0  0  0  0  0  0  0  0  0  0
   -1.5491   -2.3242   -1.1167 C   0  0  0  0  0  0  0  0  0  0  0  0
    3.8801    0.9709    0.9121 C   0  0  0  0  0  0  0  0  0  0  0  0
    2.9120    0.3566    1.7027 C   0  0  0  0  0  0  0  0  0  0  0  0
    3.6742    1.1004   -0.4582 C   0  0  0  0  0  0  0  0  0  0  0  0
    1.7383   -0.1350    1.1243 C   0  0  0  0  0  0  0  0  0  0  0  0
    2.5019    0.6098   -1.0360 C   0  0  0  0  0  0  0  0  0  0  0  0
   -1.1994    1.2855   -0.5089 C   0  0  0  0  0  0  0  0  0  0  0  0
   -2.2023    0.3785    0.2289 C   0  0  0  0  0  0  0  0  0  0  0  0
   -0.6861   -1.4950   -0.1515 C   0  0  0  0  0  0  0  0  0  0  0  0
    1.5170   -0.0233   -0.2558 C   0  0  0  0  0  0  0  0  0  0  0  0
    0.2614   -0.5384   -0.9505 C   0  0  0  0  0  0  0  0  0  0  0  0
   -1.5485   -0.7984    0.8317 N   0  0  0  0  0  0  0  0  0  0  0  0
   -0.4793    0.5633   -1.5172 O   0  0  0  0  0  0  0  0  0  0  0  0
   -2.2248    1.5224    2.0854 H   0  0  0  0  0  0  0  0  0  0  0  0
   -3.6715    0.5307    1.8258 H   0  0  0  0  0  0  0  0  0  0  0  0
   -3.4465    2.0228    0.9042 H   0  0  0  0  0  0  0  0  0  0  0  0
   -2.2217   -2.9927   -0.5678 H   0  0  0  0  0  0  0  0  0  0  0  0
   -0.9132   -2.9522   -1.7504 H   0  0  0  0  0  0  0  0  0  0  0  0
   -2.1555   -1.6963   -1.7772 H   0  0  0  0  0  0  0  0  0  0  0  0
    4.7902    1.3545    1.3650 H   0  0  0  0  0  0  0  0  0  0  0  0
    3.0657    0.2634    2.7747 H   0  0  0  0  0  0  0  0  0  0  0  0
    4.4219    1.5873   -1.0784 H   0  0  0  0  0  0  0  0  0  0  0  0
    0.9976   -0.5923    1.7755 H   0  0  0  0  0  0  0  0  0  0  0  0
    2.3480    0.7294   -2.1072 H   0  0  0  0  0  0  0  0  0  0  0  0
   -0.4956    1.7626    0.1833 H   0  0  0  0  0  0  0  0  0  0  0  0
   -1.7387    2.0914   -1.0189 H   0  0  0  0  0  0  0  0  0  0  0  0
   -2.9507    0.0292   -0.4927 H   0  0  0  0  0  0  0  0  0  0  0  0
   -0.0736   -2.2150    0.4053 H   0  0  0  0  0  0  0  0  0  0  0  0
    0.6300   -1.1146   -1.8106 H   0  0  0  0  0  0  0  0  0  0  0  0
   -2.2569   -1.4380    1.1896 H   0  0  0  0  0  0  0  0  0  0  0  0
  1  9  1  0
  2 10  1  0
  3  4  2  0
  3  5  1  0
  4  6  1  0
  5  7  2  0
  6 11  2  0
  7 11  1  0
  8  9  1  0
  8 14  1  0
  9 13  1  0
 10 12  1  0
 10 13  1  0
 11 12  1  0
 12 14  1  0
  1 15  1  0
  1 16  1  0
  1 17  1  0
  2 18  1  0
  2 19  1  0
  2 20  1  0
  3 21  1  0
  4 22  1  0
  5 23  1  0
  6 24  1  0
  7 25  1  0
  8 26  1  0
  8 27  1  0
  9 28  1  0
 10 29  1  0
 12 30  1  0
 13 31  1  0
M  END
