
     RDKit          3D

 32 33  0  0  0  0  0  0  0  0999 V2000
   -2.0780    0.0968   -2.3567 C   0  0  0  0  0  0  0  0  0  0  0  0
    5.0716    0.5893   -0.1070 C   0  0  0  0  0  0  0  0  0  0  0  0
    1.6074   -1.8139   -0.4120 C   0  0  0  0  0  0  0  0  0  0  0  0
    0.3599   -1.1882   -0.3509 C   0  0  0  0  0  0  0  0  0  0  0  0
    2.7813   -1.0627   -0.3351 C   0  0  0  0  0  0  0  0  0  0  0  0
   -2.8274   -0.7192    1.2344 C   0  0  0  0  0  0  0  0  0  0  0  0
   -2.5311    0.6908    1.7604 C   0  0  0  0  0  0  0  0  0  0  0  0
    1.4583    0.9384   -0.1292 C   0  0  0  0  0  0  0  0  0  0  0  0
   -2.3184    0.3779   -0.8741 C   0  0  0  0  0  0  0  0  0  0  0  0
    0.2614    0.2017   -0.2227 C   0  0  0  0  0  0  0  0  0  0  0  0
    2.7120    0.3203   -0.1887 C   0  0  0  0  0  0  0  0  0  0  0  0
   -1.0596    0.9498   -0.1356 C   0  0  0  0  0  0  0  0  0  0  0  0
   -2.9396   -0.8022   -0.2318 N   0  0  0  0  0  0  0  0  0  0  0  0
    3.7762    1.1748   -0.0943 O   0  0  0  0  0  0  0  0  0  0  0  0
   -1.3007    1.2194    1.2627 O   0  0  0  0  0  0  0  0  0  0  0  0
   -3.0225   -0.1293   -2.8648 H   0  0  0  0  0  0  0  0  0  0  0  0
   -1.6409    0.9716   -2.8498 H   0  0  0  0  0  0  0  0  0  0  0  0
   -1.4085   -0.7532   -2.5177 H   0  0  0  0  0  0  0  0  0  0  0  0
    5.2657    0.0820   -1.0578 H   0  0  0  0  0  0  0  0  0  0  0  0
    5.8040    1.3960   -0.0053 H   0  0  0  0  0  0  0  0  0  0  0  0
    5.2066   -0.0914    0.7401 H   0  0  0  0  0  0  0  0  0  0  0  0
    1.6618   -2.8947   -0.5168 H   0  0  0  0  0  0  0  0  0  0  0  0
   -0.5302   -1.8093   -0.4056 H   0  0  0  0  0  0  0  0  0  0  0  0
    3.7283   -1.5881   -0.3870 H   0  0  0  0  0  0  0  0  0  0  0  0
   -3.7507   -1.0980    1.6861 H   0  0  0  0  0  0  0  0  0  0  0  0
   -2.0208   -1.3919    1.5463 H   0  0  0  0  0  0  0  0  0  0  0  0
   -2.4581    0.6698    2.8527 H   0  0  0  0  0  0  0  0  0  0  0  0
   -3.3408    1.3853    1.5071 H   0  0  0  0  0  0  0  0  0  0  0  0
    1.4161    2.0184    0.0029 H   0  0  0  0  0  0  0  0  0  0  0  0
   -3.0772    1.1732   -0.8302 H   0  0  0  0  0  0  0  0  0  0  0  0
   -0.8850    1.9356   -0.5893 H   0  0  0  0  0  0  0  0  0  0  0  0
   -3.9209   -0.8490   -0.5049 H   0  0  0  0  0  0  0  0  0  0  0  0
  1  9  1  0
  2 14  1  0
  3  4  2  0
  3  5  1  0
  4 10  1  0
  5 11  2  0
  6  7  1  0
  6 13  1  0
  7 15  1  0
  8 10  2  0
  8 11  1  0
  9 12  1  0
  9 13  1  0
 10 12  1  0
 11 14  1  0
 12 15  1  0
  1 16  1  0
  1 17  1  0
  1 18  1  0
  2 19  1  0
  2 20  1  0
  2 21  1  0
  3 22  1  0
  4 23  1  0
  5 24  1  0
  6 25  1  0
  6 26  1  0
  7 27  1  0
  7 28  1  0
  8 29  1  0
  9 30  1  0
 12 31  1  0
 13 32  1  0
M  END
