
     RDKit          3D

 33 34  0  0  0  0  0  0  0  0999 V2000
   -3.4617    0.0516    0.6499 C   0  0  0  0  0  0  0  0  0  0  0  0
   -3.7925   -0.5932   -0.6970 C   0  0  0  0  0  0  0  0  0  0  0  0
   -2.2590   -0.6197    1.3016 C   0  0  0  0  0  0  0  0  0  0  0  0
    2.2460    1.4130    1.0195 C   0  0  0  0  0  0  0  0  0  0  0  0
    3.6225    1.3839    0.7720 C   0  0  0  0  0  0  0  0  0  0  0  0
   -2.6351   -1.4208   -1.2562 C   0  0  0  0  0  0  0  0  0  0  0  0
    1.8842   -0.3223   -0.6230 C   0  0  0  0  0  0  0  0  0  0  0  0
    1.3579    0.5540    0.3368 C   0  0  0  0  0  0  0  0  0  0  0  0
   -1.0062   -0.6170    0.3872 C   0  0  0  0  0  0  0  0  0  0  0  0
    4.1182    0.4971   -0.1722 C   0  0  0  0  0  0  0  0  0  0  0  0
    3.2532   -0.3454   -0.8635 C   0  0  0  0  0  0  0  0  0  0  0  0
   -0.1297    0.6610    0.6382 C   0  0  0  0  0  0  0  0  0  0  0  0
   -1.3591   -0.7426   -1.0530 N   0  0  0  0  0  0  0  0  0  0  0  0
    5.4520    0.4187   -0.4624 O   0  0  0  0  0  0  0  0  0  0  0  0
    3.7501   -1.2090   -1.7981 O   0  0  0  0  0  0  0  0  0  0  0  0
   -0.6747    1.7652   -0.1041 O   0  0  0  0  0  0  0  0  0  0  0  0
   -4.3330   -0.0026    1.3124 H   0  0  0  0  0  0  0  0  0  0  0  0
   -3.2520    1.1177    0.5027 H   0  0  0  0  0  0  0  0  0  0  0  0
   -4.0724    0.1942   -1.4077 H   0  0  0  0  0  0  0  0  0  0  0  0
   -4.6705   -1.2415   -0.5908 H   0  0  0  0  0  0  0  0  0  0  0  0
   -2.0462   -0.1465    2.2668 H   0  0  0  0  0  0  0  0  0  0  0  0
   -2.5273   -1.6603    1.5299 H   0  0  0  0  0  0  0  0  0  0  0  0
    1.8593    2.1183    1.7544 H   0  0  0  0  0  0  0  0  0  0  0  0
    4.2766    2.0554    1.3183 H   0  0  0  0  0  0  0  0  0  0  0  0
   -2.6103   -2.4178   -0.7997 H   0  0  0  0  0  0  0  0  0  0  0  0
   -2.7920   -1.5806   -2.3287 H   0  0  0  0  0  0  0  0  0  0  0  0
    1.2464   -0.9911   -1.1950 H   0  0  0  0  0  0  0  0  0  0  0  0
   -0.4153   -1.4961    0.6761 H   0  0  0  0  0  0  0  0  0  0  0  0
   -0.2192    0.9255    1.6991 H   0  0  0  0  0  0  0  0  0  0  0  0
   -1.4439    0.2129   -1.4147 H   0  0  0  0  0  0  0  0  0  0  0  0
    5.9217    1.0582    0.0999 H   0  0  0  0  0  0  0  0  0  0  0  0
    4.7144   -1.0490   -1.7916 H   0  0  0  0  0  0  0  0  0  0  0  0
   -0.0024    2.0288   -0.7571 H   0  0  0  0  0  0  0  0  0  0  0  0
  1  2  1  0
  1  3  1  0
  2  6  1  0
  3  9  1  0
  4  5  2  0
  4  8  1  0
  5 10  1  0
  6 13  1  0
  7  8  2  0
  7 11  1  0
  8 12  1  0
  9 12  1  0
  9 13  1  0
 10 11  2  0
 10 14  1  0
 11 15  1  0
 12 16  1  0
  1 17  1  0
  1 18  1  0
  2 19  1  0
  2 20  1  0
  3 21  1  0
  3 22  1  0
  4 23  1  0
  5 24  1  0
  6 25  1  0
  6 26  1  0
  7 27  1  0
  9 28  1  0
 12 29  1  0
 13 30  1  0
 14 31  1  0
 15 32  1  0
 16 33  1  0
M  END
