
     RDKit          3D

 35 35  0  0  0  0  0  0  0  0999 V2000
   -3.3658    2.9426   -0.0055 C   0  0  0  0  0  0  0  0  0  0  0  0
   -2.5033   -1.7469    1.3044 C   0  0  0  0  0  0  0  0  0  0  0  0
   -1.1238   -3.0124   -2.5177 C   0  0  0  0  0  0  0  0  0  0  0  0
   -2.7337    1.5853   -0.2588 C   0  0  0  0  0  0  0  0  0  0  0  0
    3.0452    0.8749   -0.0584 C   0  0  0  0  0  0  0  0  0  0  0  0
    3.7730    0.5092    1.2396 C   0  0  0  0  0  0  0  0  0  0  0  0
    0.5573    1.0713    0.3314 C   0  0  0  0  0  0  0  0  0  0  0  0
    1.4258   -1.0098   -0.5328 C   0  0  0  0  0  0  0  0  0  0  0  0
    1.6476    0.3046   -0.0947 C   0  0  0  0  0  0  0  0  0  0  0  0
   -0.7334    0.5400    0.3090 C   0  0  0  0  0  0  0  0  0  0  0  0
    0.1365   -1.5633   -0.5431 C   0  0  0  0  0  0  0  0  0  0  0  0
   -0.9420   -0.7906   -0.0807 C   0  0  0  0  0  0  0  0  0  0  0  0
    5.1238    1.0682    1.2635 N   0  0  0  0  0  0  0  0  0  0  0  0
   -2.2005   -1.3399   -0.0324 O   0  0  0  0  0  0  0  0  0  0  0  0
   -1.7323    1.3736    0.7437 O   0  0  0  0  0  0  0  0  0  0  0  0
   -0.0220   -3.2599   -1.0999 S   0  0  0  0  0  0  0  0  0  0  0  0
   -2.6116    3.7347   -0.0603 H   0  0  0  0  0  0  0  0  0  0  0  0
   -4.1505    3.1498   -0.7388 H   0  0  0  0  0  0  0  0  0  0  0  0
   -3.8012    2.9850    0.9981 H   0  0  0  0  0  0  0  0  0  0  0  0
   -3.4440   -2.3054    1.2768 H   0  0  0  0  0  0  0  0  0  0  0  0
   -2.6455   -0.8803    1.9587 H   0  0  0  0  0  0  0  0  0  0  0  0
   -1.7298   -2.4084    1.7117 H   0  0  0  0  0  0  0  0  0  0  0  0
   -0.7245   -2.2452   -3.1870 H   0  0  0  0  0  0  0  0  0  0  0  0
   -1.1978   -3.9509   -3.0743 H   0  0  0  0  0  0  0  0  0  0  0  0
   -2.1282   -2.7288   -2.1958 H   0  0  0  0  0  0  0  0  0  0  0  0
   -3.5054    0.8130   -0.1785 H   0  0  0  0  0  0  0  0  0  0  0  0
   -2.3059    1.5715   -1.2696 H   0  0  0  0  0  0  0  0  0  0  0  0
    2.9984    1.9659   -0.1713 H   0  0  0  0  0  0  0  0  0  0  0  0
    3.6055    0.5062   -0.9275 H   0  0  0  0  0  0  0  0  0  0  0  0
    3.2173    0.8908    2.1038 H   0  0  0  0  0  0  0  0  0  0  0  0
    3.8347   -0.5793    1.3494 H   0  0  0  0  0  0  0  0  0  0  0  0
    0.7044    2.0929    0.6768 H   0  0  0  0  0  0  0  0  0  0  0  0
    2.2708   -1.6109   -0.8670 H   0  0  0  0  0  0  0  0  0  0  0  0
    5.6729    0.6705    0.5023 H   0  0  0  0  0  0  0  0  0  0  0  0
    5.5879    0.7819    2.1250 H   0  0  0  0  0  0  0  0  0  0  0  0
  1  4  1  0
  2 14  1  0
  3 16  1  0
  4 15  1  0
  5  6  1  0
  5  9  1  0
  6 13  1  0
  7  9  2  0
  7 10  1  0
  8  9  1  0
  8 11  2  0
 10 12  2  0
 10 15  1  0
 11 12  1  0
 11 16  1  0
 12 14  1  0
  1 17  1  0
  1 18  1  0
  1 19  1  0
  2 20  1  0
  2 21  1  0
  2 22  1  0
  3 23  1  0
  3 24  1  0
  3 25  1  0
  4 26  1  0
  4 27  1  0
  5 28  1  0
  5 29  1  0
  6 30  1  0
  6 31  1  0
  7 32  1  0
  8 33  1  0
 13 34  1  0
 13 35  1  0
M  END
