
     RDKit          3D

 35 35  0  0  0  0  0  0  0  0999 V2000
    2.8676   -0.0126   -1.1475 C   0  0  0  0  0  0  0  0  0  0  0  0
   -2.7695    2.9845   -1.2078 C   0  0  0  0  0  0  0  0  0  0  0  0
   -2.9879   -3.0242    0.8217 C   0  0  0  0  0  0  0  0  0  0  0  0
    1.1380   -2.8074    0.6509 C   0  0  0  0  0  0  0  0  0  0  0  0
    1.6262    1.1082    0.7864 C   0  0  0  0  0  0  0  0  0  0  0  0
   -0.7312    1.3893   -0.0481 C   0  0  0  0  0  0  0  0  0  0  0  0
   -2.3283   -0.4175   -0.0197 C   0  0  0  0  0  0  0  0  0  0  0  0
    2.4869    1.3085   -0.4797 C   0  0  0  0  0  0  0  0  0  0  0  0
    0.2475    0.5451    0.5061 C   0  0  0  0  0  0  0  0  0  0  0  0
   -2.0113    0.9108   -0.3192 C   0  0  0  0  0  0  0  0  0  0  0  0
   -1.3791   -1.2799    0.5393 C   0  0  0  0  0  0  0  0  0  0  0  0
   -0.0756   -0.7997    0.7705 C   0  0  0  0  0  0  0  0  0  0  0  0
    3.7257    2.0299   -0.1511 N   0  0  0  0  0  0  0  0  0  0  0  0
   -3.0406    1.6321   -0.8611 O   0  0  0  0  0  0  0  0  0  0  0  0
   -1.6401   -2.5781    0.8949 O   0  0  0  0  0  0  0  0  0  0  0  0
    0.9241   -1.5666    1.3211 O   0  0  0  0  0  0  0  0  0  0  0  0
    3.3949   -0.6772   -0.4541 H   0  0  0  0  0  0  0  0  0  0  0  0
    1.9812   -0.5383   -1.5162 H   0  0  0  0  0  0  0  0  0  0  0  0
    3.5206    0.1593   -2.0109 H   0  0  0  0  0  0  0  0  0  0  0  0
   -2.5148    3.5750   -0.3216 H   0  0  0  0  0  0  0  0  0  0  0  0
   -1.9822    3.0480   -1.9663 H   0  0  0  0  0  0  0  0  0  0  0  0
   -3.6817    3.4082   -1.6389 H   0  0  0  0  0  0  0  0  0  0  0  0
   -3.6456   -2.4091    1.4449 H   0  0  0  0  0  0  0  0  0  0  0  0
   -3.0222   -4.0462    1.2113 H   0  0  0  0  0  0  0  0  0  0  0  0
   -3.3357   -3.0535   -0.2160 H   0  0  0  0  0  0  0  0  0  0  0  0
    0.8612   -2.7745   -0.4091 H   0  0  0  0  0  0  0  0  0  0  0  0
    0.6056   -3.6113    1.1672 H   0  0  0  0  0  0  0  0  0  0  0  0
    2.2076   -3.0326    0.7067 H   0  0  0  0  0  0  0  0  0  0  0  0
    2.1633    0.4877    1.5145 H   0  0  0  0  0  0  0  0  0  0  0  0
    1.4871    2.0751    1.2909 H   0  0  0  0  0  0  0  0  0  0  0  0
   -0.4644    2.4211   -0.2552 H   0  0  0  0  0  0  0  0  0  0  0  0
   -3.3392   -0.7486   -0.2341 H   0  0  0  0  0  0  0  0  0  0  0  0
    1.9373    1.9162   -1.2080 H   0  0  0  0  0  0  0  0  0  0  0  0
    4.2750    1.4786    0.5087 H   0  0  0  0  0  0  0  0  0  0  0  0
    3.4998    2.8997    0.3297 H   0  0  0  0  0  0  0  0  0  0  0  0
  1  8  1  0
  2 14  1  0
  3 15  1  0
  4 16  1  0
  5  8  1  0
  5  9  1  0
  6  9  2  0
  6 10  1  0
  7 10  2  0
  7 11  1  0
  8 13  1  0
  9 12  1  0
 10 14  1  0
 11 12  2  0
 11 15  1  0
 12 16  1  0
  1 17  1  0
  1 18  1  0
  1 19  1  0
  2 20  1  0
  2 21  1  0
  2 22  1  0
  3 23  1  0
  3 24  1  0
  3 25  1  0
  4 26  1  0
  4 27  1  0
  4 28  1  0
  5 29  1  0
  5 30  1  0
  6 31  1  0
  7 32  1  0
  8 33  1  0
 13 34  1  0
 13 35  1  0
M  END
