
     RDKit          3D

 35 35  0  0  0  0  0  0  0  0999 V2000
   -3.0951    0.5361   -0.7989 C   0  0  0  0  0  0  0  0  0  0  0  0
    4.1713   -1.6487   -0.8565 C   0  0  0  0  0  0  0  0  0  0  0  0
   -0.4731    2.6436    0.8679 C   0  0  0  0  0  0  0  0  0  0  0  0
    2.8415    2.2321   -0.2974 C   0  0  0  0  0  0  0  0  0  0  0  0
    0.0434   -1.8824   -0.0934 C   0  0  0  0  0  0  0  0  0  0  0  0
    1.3849   -1.7827   -0.4675 C   0  0  0  0  0  0  0  0  0  0  0  0
   -2.0511   -0.9883    0.9688 C   0  0  0  0  0  0  0  0  0  0  0  0
   -3.0467   -0.8716   -0.2056 C   0  0  0  0  0  0  0  0  0  0  0  0
   -0.6019   -0.8239    0.5596 C   0  0  0  0  0  0  0  0  0  0  0  0
    2.1166   -0.6239   -0.1921 C   0  0  0  0  0  0  0  0  0  0  0  0
    0.1133    0.3634    0.8005 C   0  0  0  0  0  0  0  0  0  0  0  0
    1.4691    0.4674    0.4239 C   0  0  0  0  0  0  0  0  0  0  0  0
   -4.4041   -1.2305    0.2326 N   0  0  0  0  0  0  0  0  0  0  0  0
    3.4509   -0.4834   -0.4770 O   0  0  0  0  0  0  0  0  0  0  0  0
   -0.5728    1.3533    1.4637 O   0  0  0  0  0  0  0  0  0  0  0  0
    2.1412    1.6145    0.7810 O   0  0  0  0  0  0  0  0  0  0  0  0
   -3.3432    1.2854   -0.0389 H   0  0  0  0  0  0  0  0  0  0  0  0
   -2.1343    0.8094   -1.2463 H   0  0  0  0  0  0  0  0  0  0  0  0
   -3.8480    0.6004   -1.5929 H   0  0  0  0  0  0  0  0  0  0  0  0
    5.2294   -1.3783   -0.9265 H   0  0  0  0  0  0  0  0  0  0  0  0
    4.0794   -2.4386   -0.1036 H   0  0  0  0  0  0  0  0  0  0  0  0
    3.8534   -2.0008   -1.8430 H   0  0  0  0  0  0  0  0  0  0  0  0
    0.3192    3.2226    1.3505 H   0  0  0  0  0  0  0  0  0  0  0  0
   -1.4179    3.1653    1.0499 H   0  0  0  0  0  0  0  0  0  0  0  0
   -0.3228    2.6016   -0.2168 H   0  0  0  0  0  0  0  0  0  0  0  0
    3.8973    1.9476   -0.2733 H   0  0  0  0  0  0  0  0  0  0  0  0
    2.4004    2.0119   -1.2764 H   0  0  0  0  0  0  0  0  0  0  0  0
    2.7899    3.3152   -0.1475 H   0  0  0  0  0  0  0  0  0  0  0  0
   -0.4953   -2.8046   -0.3039 H   0  0  0  0  0  0  0  0  0  0  0  0
    1.8332   -2.6386   -0.9613 H   0  0  0  0  0  0  0  0  0  0  0  0
   -2.1488   -1.9799    1.4335 H   0  0  0  0  0  0  0  0  0  0  0  0
   -2.3175   -0.2800    1.7631 H   0  0  0  0  0  0  0  0  0  0  0  0
   -2.7633   -1.5708   -1.0011 H   0  0  0  0  0  0  0  0  0  0  0  0
   -4.7058   -0.5869    0.9645 H   0  0  0  0  0  0  0  0  0  0  0  0
   -4.3927   -2.1557    0.6603 H   0  0  0  0  0  0  0  0  0  0  0  0
  1  8  1  0
  2 14  1  0
  3 15  1  0
  4 16  1  0
  5  6  2  0
  5  9  1  0
  6 10  1  0
  7  8  1  0
  7  9  1  0
  8 13  1  0
  9 11  2  0
 10 12  2  0
 10 14  1  0
 11 12  1  0
 11 15  1  0
 12 16  1  0
  1 17  1  0
  1 18  1  0
  1 19  1  0
  2 20  1  0
  2 21  1  0
  2 22  1  0
  3 23  1  0
  3 24  1  0
  3 25  1  0
  4 26  1  0
  4 27  1  0
  4 28  1  0
  5 29  1  0
  6 30  1  0
  7 31  1  0
  7 32  1  0
  8 33  1  0
 13 34  1  0
 13 35  1  0
M  END
