
     RDKit          3D

 38 37  0  0  0  0  0  0  0  0999 V2000
   -5.4030    1.5324   -0.1244 C   0  0  0  0  0  0  0  0  0  0  0  0
   -5.0954    0.3158   -0.9836 C   0  0  0  0  0  0  0  0  0  0  0  0
   -3.6542   -0.1815   -0.8434 C   0  0  0  0  0  0  0  0  0  0  0  0
   -3.3318   -0.7073    0.5579 C   0  0  0  0  0  0  0  0  0  0  0  0
   -1.9693   -1.4025    0.6452 C   0  0  0  0  0  0  0  0  0  0  0  0
   -0.7893   -0.4589    0.4022 C   0  0  0  0  0  0  0  0  0  0  0  0
    0.5461   -1.1768    0.6113 C   0  0  0  0  0  0  0  0  0  0  0  0
    1.7282   -0.2362    0.3656 C   0  0  0  0  0  0  0  0  0  0  0  0
    3.0619   -0.9574    0.5723 C   0  0  0  0  0  0  0  0  0  0  0  0
    4.2758   -0.0344    0.4420 C   0  0  0  0  0  0  0  0  0  0  0  0
    4.4565    0.5326   -0.9618 C   0  0  0  0  0  0  0  0  0  0  0  0
    5.7588    1.2716   -1.0738 C   0  0  0  0  0  0  0  0  0  0  0  0
    6.7684    0.8752   -1.6307 O   0  0  0  0  0  0  0  0  0  0  0  0
    5.7305    2.4746   -0.4705 O   0  0  0  0  0  0  0  0  0  0  0  0
   -6.4135    1.8963   -0.3369 H   0  0  0  0  0  0  0  0  0  0  0  0
   -5.3552    1.2928    0.9419 H   0  0  0  0  0  0  0  0  0  0  0  0
   -4.7001    2.3461   -0.3289 H   0  0  0  0  0  0  0  0  0  0  0  0
   -5.2718    0.5771   -2.0339 H   0  0  0  0  0  0  0  0  0  0  0  0
   -5.7947   -0.4914   -0.7367 H   0  0  0  0  0  0  0  0  0  0  0  0
   -3.4962   -0.9841   -1.5742 H   0  0  0  0  0  0  0  0  0  0  0  0
   -2.9684    0.6309   -1.1092 H   0  0  0  0  0  0  0  0  0  0  0  0
   -3.3634    0.1119    1.2853 H   0  0  0  0  0  0  0  0  0  0  0  0
   -4.1026   -1.4282    0.8568 H   0  0  0  0  0  0  0  0  0  0  0  0
   -1.9334   -2.2328   -0.0705 H   0  0  0  0  0  0  0  0  0  0  0  0
   -1.8751   -1.8441    1.6452 H   0  0  0  0  0  0  0  0  0  0  0  0
   -0.8563    0.3972    1.0843 H   0  0  0  0  0  0  0  0  0  0  0  0
   -0.8277   -0.0651   -0.6195 H   0  0  0  0  0  0  0  0  0  0  0  0
    0.5957   -1.5694    1.6343 H   0  0  0  0  0  0  0  0  0  0  0  0
    0.6121   -2.0350   -0.0685 H   0  0  0  0  0  0  0  0  0  0  0  0
    1.6677    0.1557   -0.6558 H   0  0  0  0  0  0  0  0  0  0  0  0
    1.6635    0.6201    1.0476 H   0  0  0  0  0  0  0  0  0  0  0  0
    3.0771   -1.4033    1.5746 H   0  0  0  0  0  0  0  0  0  0  0  0
    3.1507   -1.7847   -0.1423 H   0  0  0  0  0  0  0  0  0  0  0  0
    5.1734   -0.6017    0.7200 H   0  0  0  0  0  0  0  0  0  0  0  0
    4.1964    0.7844    1.1679 H   0  0  0  0  0  0  0  0  0  0  0  0
    4.4615   -0.2714   -1.7068 H   0  0  0  0  0  0  0  0  0  0  0  0
    3.6467    1.2168   -1.2364 H   0  0  0  0  0  0  0  0  0  0  0  0
    6.6304    2.8347   -0.6165 H   0  0  0  0  0  0  0  0  0  0  0  0
  1  2  1  0
  2  3  1  0
  3  4  1  0
  4  5  1  0
  5  6  1  0
  6  7  1  0
  7  8  1  0
  8  9  1  0
  9 10  1  0
 10 11  1  0
 11 12  1  0
 12 13  2  0
 12 14  1  0
  1 15  1  0
  1 16  1  0
  1 17  1  0
  2 18  1  0
  2 19  1  0
  3 20  1  0
  3 21  1  0
  4 22  1  0
  4 23  1  0
  5 24  1  0
  5 25  1  0
  6 26  1  0
  6 27  1  0
  7 28  1  0
  7 29  1  0
  8 30  1  0
  8 31  1  0
  9 32  1  0
  9 33  1  0
 10 34  1  0
 10 35  1  0
 11 36  1  0
 11 37  1  0
 14 38  1  0
M  END
