
     RDKit          3D

 27 29  0  0  0  0  0  0  0  0999 V2000
   -2.2137    2.5775   -0.8529 C   0  0  0  0  0  0  0  0  0  0  0  0
   -2.5552    1.6027    0.0864 C   0  0  0  0  0  0  0  0  0  0  0  0
    2.9778   -1.3081    0.2178 C   0  0  0  0  0  0  0  0  0  0  0  0
    4.1166   -0.5648    0.4022 C   0  0  0  0  0  0  0  0  0  0  0  0
   -0.1416    1.4179   -1.2833 C   0  0  0  0  0  0  0  0  0  0  0  0
   -1.2503   -2.2913   -0.0752 C   0  0  0  0  0  0  0  0  0  0  0  0
   -1.0095    2.4756   -1.5391 C   0  0  0  0  0  0  0  0  0  0  0  0
   -0.4711    0.4492   -0.3183 C   0  0  0  0  0  0  0  0  0  0  0  0
   -1.7060    0.5186    0.3550 C   0  0  0  0  0  0  0  0  0  0  0  0
    1.9139   -0.3670    0.1154 C   0  0  0  0  0  0  0  0  0  0  0  0
   -1.9834   -1.6663    1.0826 C   0  0  0  0  0  0  0  0  0  0  0  0
    0.4825   -0.6701   -0.0648 C   0  0  0  0  0  0  0  0  0  0  0  0
   -0.5930    3.6611   -2.7137 Cl  0  0  0  0  0  0  0  0  0  0  0  0
    0.1630   -1.9227    0.0192 N   0  0  0  0  0  0  0  0  0  0  0  0
    3.7107    0.7333    0.4143 N   0  0  0  0  0  0  0  0  0  0  0  0
   -2.1775   -0.4099    1.3014 N   0  0  0  0  0  0  0  0  0  0  0  0
    2.3889    0.8868    0.2384 N   0  0  0  0  0  0  0  0  0  0  0  0
   -2.4728   -2.5288    1.9831 O   0  0  0  0  0  0  0  0  0  0  0  0
   -2.8928    3.4042   -1.0441 H   0  0  0  0  0  0  0  0  0  0  0  0
   -3.5024    1.6806    0.6166 H   0  0  0  0  0  0  0  0  0  0  0  0
    2.8988   -2.3855    0.1668 H   0  0  0  0  0  0  0  0  0  0  0  0
    5.1531   -0.8405    0.5323 H   0  0  0  0  0  0  0  0  0  0  0  0
    0.7955    1.3529   -1.8313 H   0  0  0  0  0  0  0  0  0  0  0  0
   -1.3356   -3.3811   -0.0119 H   0  0  0  0  0  0  0  0  0  0  0  0
   -1.6960   -1.9868   -1.0283 H   0  0  0  0  0  0  0  0  0  0  0  0
    4.2784    1.5653    0.5388 H   0  0  0  0  0  0  0  0  0  0  0  0
   -2.8782   -2.0029    2.6926 H   0  0  0  0  0  0  0  0  0  0  0  0
  1  2  2  0
  1  7  1  0
  2  9  1  0
  3  4  2  0
  3 10  1  0
  4 15  1  0
  5  7  2  0
  5  8  1  0
  6 11  1  0
  6 14  1  0
  7 13  1  0
  8  9  2  0
  8 12  1  0
  9 16  1  0
 10 12  1  0
 10 17  2  0
 11 16  2  0
 11 18  1  0
 12 14  2  0
 15 17  1  0
  1 19  1  0
  2 20  1  0
  3 21  1  0
  4 22  1  0
  5 23  1  0
  6 24  1  0
  6 25  1  0
 15 26  1  0
 18 27  1  0
M  END
