
     RDKit          3D

 30 31  0  0  0  0  0  0  0  0999 V2000
   -3.5616    0.4013   -1.2041 C   0  0  0  0  0  0  0  0  0  0  0  0
   -3.1061    1.6992   -1.0314 C   0  0  0  0  0  0  0  0  0  0  0  0
    0.1586   -1.6059    1.3957 C   0  0  0  0  0  0  0  0  0  0  0  0
   -2.7624   -0.6697   -0.8077 C   0  0  0  0  0  0  0  0  0  0  0  0
   -0.7235   -1.7202    0.1562 C   0  0  0  0  0  0  0  0  0  0  0  0
    1.5213   -0.9732    1.1029 C   0  0  0  0  0  0  0  0  0  0  0  0
   -1.8475    1.9190   -0.4751 C   0  0  0  0  0  0  0  0  0  0  0  0
    2.3708    0.5704   -0.7184 C   0  0  0  0  0  0  0  0  0  0  0  0
   -1.4930   -0.4707   -0.2238 C   0  0  0  0  0  0  0  0  0  0  0  0
    1.4709    0.2678    0.2427 C   0  0  0  0  0  0  0  0  0  0  0  0
   -1.0117    0.8487   -0.0804 C   0  0  0  0  0  0  0  0  0  0  0  0
    3.5693   -0.2036   -1.0871 C   0  0  0  0  0  0  0  0  0  0  0  0
    0.3362    1.2277    0.5164 C   0  0  0  0  0  0  0  0  0  0  0  0
    4.0481   -1.1785   -0.5456 O   0  0  0  0  0  0  0  0  0  0  0  0
    4.1318    0.3402   -2.1807 O   0  0  0  0  0  0  0  0  0  0  0  0
    0.2241    1.4403    1.9214 O   0  0  0  0  0  0  0  0  0  0  0  0
   -4.5378    0.2180   -1.6449 H   0  0  0  0  0  0  0  0  0  0  0  0
   -3.7249    2.5402   -1.3327 H   0  0  0  0  0  0  0  0  0  0  0  0
    0.3435   -2.6137    1.7903 H   0  0  0  0  0  0  0  0  0  0  0  0
   -0.3632   -1.0658    2.1944 H   0  0  0  0  0  0  0  0  0  0  0  0
   -3.1426   -1.6797   -0.9549 H   0  0  0  0  0  0  0  0  0  0  0  0
   -0.1382   -2.0536   -0.7098 H   0  0  0  0  0  0  0  0  0  0  0  0
   -1.4497   -2.5175    0.3648 H   0  0  0  0  0  0  0  0  0  0  0  0
    2.0109   -0.7317    2.0542 H   0  0  0  0  0  0  0  0  0  0  0  0
    2.1263   -1.7518    0.6301 H   0  0  0  0  0  0  0  0  0  0  0  0
   -1.5112    2.9481   -0.3516 H   0  0  0  0  0  0  0  0  0  0  0  0
    2.2511    1.4818   -1.2987 H   0  0  0  0  0  0  0  0  0  0  0  0
    0.6157    2.2062    0.1032 H   0  0  0  0  0  0  0  0  0  0  0  0
    4.9117   -0.2304   -2.3431 H   0  0  0  0  0  0  0  0  0  0  0  0
   -0.7170    1.3572    2.1500 H   0  0  0  0  0  0  0  0  0  0  0  0
  1  2  2  0
  1  4  1  0
  2  7  1  0
  3  5  1  0
  3  6  1  0
  4  9  2  0
  5  9  1  0
  6 10  1  0
  7 11  2  0
  8 10  2  3
  8 12  1  0
  9 11  1  0
 10 13  1  0
 11 13  1  0
 12 14  2  0
 12 15  1  0
 13 16  1  0
  1 17  1  0
  2 18  1  0
  3 19  1  0
  3 20  1  0
  4 21  1  0
  5 22  1  0
  5 23  1  0
  6 24  1  0
  6 25  1  0
  7 26  1  0
  8 27  1  0
 13 28  1  0
 15 29  1  0
 16 30  1  0
M  END
