
     RDKit          3D

 31 32  0  0  0  0  0  0  0  0999 V2000
   -3.6126    0.2318   -2.5542 C   0  0  0  0  0  0  0  0  0  0  0  0
   -1.4464    1.8010    0.1165 C   0  0  0  0  0  0  0  0  0  0  0  0
   -3.6081   -0.0564   -1.3880 C   0  0  0  0  0  0  0  0  0  0  0  0
    0.8879   -1.5604    0.9232 C   0  0  0  0  0  0  0  0  0  0  0  0
    1.9554   -2.0814    0.1853 C   0  0  0  0  0  0  0  0  0  0  0  0
   -3.6024   -0.4166    0.0362 C   0  0  0  0  0  0  0  0  0  0  0  0
   -0.4017    0.3709    1.9483 C   0  0  0  0  0  0  0  0  0  0  0  0
    1.7403    0.7013    0.6356 C   0  0  0  0  0  0  0  0  0  0  0  0
    4.5585   -0.2131   -1.2585 C   0  0  0  0  0  0  0  0  0  0  0  0
   -1.6910    0.6919    1.1445 C   0  0  0  0  0  0  0  0  0  0  0  0
    0.7674   -0.1700    1.1519 C   0  0  0  0  0  0  0  0  0  0  0  0
    2.8858   -1.1939   -0.3076 C   0  0  0  0  0  0  0  0  0  0  0  0
    2.7816    0.1589   -0.0881 C   0  0  0  0  0  0  0  0  0  0  0  0
   -2.2467   -0.5396    0.5630 N   0  0  0  0  0  0  0  0  0  0  0  0
    3.9829   -1.5180   -1.0426 O   0  0  0  0  0  0  0  0  0  0  0  0
    3.8005    0.8572   -0.6575 O   0  0  0  0  0  0  0  0  0  0  0  0
   -3.6133    0.4874   -3.5887 H   0  0  0  0  0  0  0  0  0  0  0  0
   -0.8523    1.4479   -0.7330 H   0  0  0  0  0  0  0  0  0  0  0  0
   -0.9156    2.6432    0.5739 H   0  0  0  0  0  0  0  0  0  0  0  0
   -2.3904    2.1963   -0.2717 H   0  0  0  0  0  0  0  0  0  0  0  0
    0.1390   -2.2417    1.3247 H   0  0  0  0  0  0  0  0  0  0  0  0
    2.0490   -3.1465    0.0077 H   0  0  0  0  0  0  0  0  0  0  0  0
   -4.0879   -1.3935    0.1441 H   0  0  0  0  0  0  0  0  0  0  0  0
   -4.2032    0.2871    0.6234 H   0  0  0  0  0  0  0  0  0  0  0  0
   -0.0765    1.2767    2.4782 H   0  0  0  0  0  0  0  0  0  0  0  0
   -0.6424   -0.3476    2.7444 H   0  0  0  0  0  0  0  0  0  0  0  0
    1.6860    1.7730    0.7933 H   0  0  0  0  0  0  0  0  0  0  0  0
    4.6233   -0.0331   -2.3379 H   0  0  0  0  0  0  0  0  0  0  0  0
    5.5714   -0.2032   -0.8397 H   0  0  0  0  0  0  0  0  0  0  0  0
   -2.4092    1.0749    1.8820 H   0  0  0  0  0  0  0  0  0  0  0  0
   -1.6293   -0.8843   -0.1732 H   0  0  0  0  0  0  0  0  0  0  0  0
  1  3  3  0
  2 10  1  0
  3  6  1  0
  4  5  2  0
  4 11  1  0
  5 12  1  0
  6 14  1  0
  7 10  1  0
  7 11  1  0
  8 11  2  0
  8 13  1  0
  9 15  1  0
  9 16  1  0
 10 14  1  0
 12 13  2  0
 12 15  1  0
 13 16  1  0
  1 17  1  0
  2 18  1  0
  2 19  1  0
  2 20  1  0
  4 21  1  0
  5 22  1  0
  6 23  1  0
  6 24  1  0
  7 25  1  0
  7 26  1  0
  8 27  1  0
  9 28  1  0
  9 29  1  0
 10 30  1  0
 14 31  1  0
M  END
