
     RDKit          3D

 36 37  0  0  0  0  0  0  0  0999 V2000
   -2.6501    1.5783   -2.8386 C   0  0  0  0  0  0  0  0  0  0  0  0
   -3.4501   -1.1754    0.9199 C   0  0  0  0  0  0  0  0  0  0  0  0
   -2.8739    1.5298   -1.3299 C   0  0  0  0  0  0  0  0  0  0  0  0
   -2.8438    0.2036    0.6916 C   0  0  0  0  0  0  0  0  0  0  0  0
    3.3079    0.7319    2.2952 C   0  0  0  0  0  0  0  0  0  0  0  0
    4.5547    0.4721    1.7317 C   0  0  0  0  0  0  0  0  0  0  0  0
    2.1372    0.2786    1.6763 C   0  0  0  0  0  0  0  0  0  0  0  0
    4.6695   -0.2457    0.5377 C   0  0  0  0  0  0  0  0  0  0  0  0
   -0.2291   -1.0332   -0.2432 C   0  0  0  0  0  0  0  0  0  0  0  0
   -0.8588    0.2816   -0.7414 C   0  0  0  0  0  0  0  0  0  0  0  0
    1.9686   -1.6246   -1.4414 C   0  0  0  0  0  0  0  0  0  0  0  0
    1.2615   -1.0411   -0.4080 C   0  0  0  0  0  0  0  0  0  0  0  0
    2.2247   -0.4475    0.4705 C   0  0  0  0  0  0  0  0  0  0  0  0
    3.4884   -0.6914   -0.0679 C   0  0  0  0  0  0  0  0  0  0  0  0
    3.3026   -1.4088   -1.2261 N   0  0  0  0  0  0  0  0  0  0  0  0
   -2.3396    0.3119   -0.6907 N   0  0  0  0  0  0  0  0  0  0  0  0
   -1.5997    1.7425   -3.0949 H   0  0  0  0  0  0  0  0  0  0  0  0
   -2.9870    0.6532   -3.3181 H   0  0  0  0  0  0  0  0  0  0  0  0
   -3.2221    2.4059   -3.2716 H   0  0  0  0  0  0  0  0  0  0  0  0
   -3.8399   -1.2482    1.9406 H   0  0  0  0  0  0  0  0  0  0  0  0
   -4.2821   -1.3566    0.2308 H   0  0  0  0  0  0  0  0  0  0  0  0
   -2.7169   -1.9756    0.7855 H   0  0  0  0  0  0  0  0  0  0  0  0
   -3.9617    1.5588   -1.1842 H   0  0  0  0  0  0  0  0  0  0  0  0
   -2.4627    2.4333   -0.8625 H   0  0  0  0  0  0  0  0  0  0  0  0
   -2.0631    0.4044    1.4355 H   0  0  0  0  0  0  0  0  0  0  0  0
   -3.6318    0.9407    0.8940 H   0  0  0  0  0  0  0  0  0  0  0  0
    3.2410    1.2911    3.2250 H   0  0  0  0  0  0  0  0  0  0  0  0
    5.4534    0.8319    2.2274 H   0  0  0  0  0  0  0  0  0  0  0  0
    1.1706    0.4859    2.1251 H   0  0  0  0  0  0  0  0  0  0  0  0
    5.6423   -0.4472    0.1017 H   0  0  0  0  0  0  0  0  0  0  0  0
   -0.4588   -1.1992    0.8154 H   0  0  0  0  0  0  0  0  0  0  0  0
   -0.6585   -1.8780   -0.7968 H   0  0  0  0  0  0  0  0  0  0  0  0
   -0.5289    0.4089   -1.7787 H   0  0  0  0  0  0  0  0  0  0  0  0
   -0.4453    1.1306   -0.1800 H   0  0  0  0  0  0  0  0  0  0  0  0
    1.6326   -2.1746   -2.3106 H   0  0  0  0  0  0  0  0  0  0  0  0
    4.0489   -1.7281   -1.8274 H   0  0  0  0  0  0  0  0  0  0  0  0
  1  3  1  0
  2  4  1  0
  3 16  1  0
  4 16  1  0
  5  6  2  0
  5  7  1  0
  6  8  1  0
  7 13  2  0
  8 14  2  0
  9 10  1  0
  9 12  1  0
 10 16  1  0
 11 12  2  0
 11 15  1  0
 12 13  1  0
 13 14  1  0
 14 15  1  0
  1 17  1  0
  1 18  1  0
  1 19  1  0
  2 20  1  0
  2 21  1  0
  2 22  1  0
  3 23  1  0
  3 24  1  0
  4 25  1  0
  4 26  1  0
  5 27  1  0
  6 28  1  0
  7 29  1  0
  8 30  1  0
  9 31  1  0
  9 32  1  0
 10 33  1  0
 10 34  1  0
 11 35  1  0
 15 36  1  0
M  END
