
     RDKit          3D

 34 35  0  0  0  0  0  0  0  0999 V2000
    4.6579    0.8337    1.8657 C   0  0  0  0  0  0  0  0  0  0  0  0
   -3.0679    2.4779    1.3670 C   0  0  0  0  0  0  0  0  0  0  0  0
    3.2849    0.6337   -0.6048 C   0  0  0  0  0  0  0  0  0  0  0  0
    2.5672    0.5207   -1.8029 C   0  0  0  0  0  0  0  0  0  0  0  0
    1.3245    0.0225    0.6750 C   0  0  0  0  0  0  0  0  0  0  0  0
   -2.6675   -2.0662   -0.1588 C   0  0  0  0  0  0  0  0  0  0  0  0
   -0.9177   -0.3746   -2.1864 C   0  0  0  0  0  0  0  0  0  0  0  0
    2.6766    0.3894    0.6253 C   0  0  0  0  0  0  0  0  0  0  0  0
    0.5768   -0.1023   -0.5150 C   0  0  0  0  0  0  0  0  0  0  0  0
   -1.8545   -0.8012    0.1926 C   0  0  0  0  0  0  0  0  0  0  0  0
   -0.7839   -0.4496   -0.8113 C   0  0  0  0  0  0  0  0  0  0  0  0
    1.2195    0.1539   -1.7251 C   0  0  0  0  0  0  0  0  0  0  0  0
   -2.8102    0.3720    0.3665 C   0  0  0  0  0  0  0  0  0  0  0  0
   -1.8759   -3.3043   -0.1554 N   0  0  0  0  0  0  0  0  0  0  0  0
    0.2917   -0.0270   -2.7225 N   0  0  0  0  0  0  0  0  0  0  0  0
   -3.9228    0.4599   -0.1401 O   0  0  0  0  0  0  0  0  0  0  0  0
    3.2830    0.4729    1.8511 O   0  0  0  0  0  0  0  0  0  0  0  0
   -2.2565    1.3184    1.1823 O   0  0  0  0  0  0  0  0  0  0  0  0
    4.8074    1.8367    1.4524 H   0  0  0  0  0  0  0  0  0  0  0  0
    5.2667    0.0924    1.3377 H   0  0  0  0  0  0  0  0  0  0  0  0
    4.9875    0.8519    2.9090 H   0  0  0  0  0  0  0  0  0  0  0  0
   -4.0072    2.2124    1.8620 H   0  0  0  0  0  0  0  0  0  0  0  0
   -3.2593    2.9698    0.4082 H   0  0  0  0  0  0  0  0  0  0  0  0
   -2.5225    3.1743    2.0099 H   0  0  0  0  0  0  0  0  0  0  0  0
    4.3297    0.9187   -0.6740 H   0  0  0  0  0  0  0  0  0  0  0  0
    3.0477    0.7130   -2.7567 H   0  0  0  0  0  0  0  0  0  0  0  0
    0.8571   -0.1630    1.6373 H   0  0  0  0  0  0  0  0  0  0  0  0
   -3.1388   -1.9633   -1.1434 H   0  0  0  0  0  0  0  0  0  0  0  0
   -3.4827   -2.1865    0.5656 H   0  0  0  0  0  0  0  0  0  0  0  0
   -1.7708   -0.5517   -2.8286 H   0  0  0  0  0  0  0  0  0  0  0  0
   -1.3974   -0.9830    1.1750 H   0  0  0  0  0  0  0  0  0  0  0  0
   -1.4298   -3.4353    0.7508 H   0  0  0  0  0  0  0  0  0  0  0  0
   -2.4930   -4.1020   -0.2995 H   0  0  0  0  0  0  0  0  0  0  0  0
    0.4800    0.0857   -3.7087 H   0  0  0  0  0  0  0  0  0  0  0  0
  1 17  1  0
  2 18  1  0
  3  4  2  0
  3  8  1  0
  4 12  1  0
  5  8  2  0
  5  9  1  0
  6 10  1  0
  6 14  1  0
  7 11  2  0
  7 15  1  0
  8 17  1  0
  9 11  1  0
  9 12  2  0
 10 11  1  0
 10 13  1  0
 12 15  1  0
 13 16  2  0
 13 18  1  0
  1 19  1  0
  1 20  1  0
  1 21  1  0
  2 22  1  0
  2 23  1  0
  2 24  1  0
  3 25  1  0
  4 26  1  0
  5 27  1  0
  6 28  1  0
  6 29  1  0
  7 30  1  0
 10 31  1  0
 14 32  1  0
 14 33  1  0
 15 34  1  0
M  END
