
     RDKit          3D

 32 33  0  0  0  0  0  0  0  0999 V2000
   -3.3456   -2.0875   -1.1654 C   0  0  0  0  0  0  0  0  0  0  0  0
   -2.1359    1.7139    0.8847 C   0  0  0  0  0  0  0  0  0  0  0  0
   -3.1650   -0.8459   -0.3007 C   0  0  0  0  0  0  0  0  0  0  0  0
    1.4330   -1.2635   -0.2037 C   0  0  0  0  0  0  0  0  0  0  0  0
    2.7825   -1.1462    0.1644 C   0  0  0  0  0  0  0  0  0  0  0  0
    4.6977    0.6294    0.3248 C   0  0  0  0  0  0  0  0  0  0  0  0
    4.6512    1.9676    0.0076 C   0  0  0  0  0  0  0  0  0  0  0  0
   -0.7616   -0.3207   -1.0471 C   0  0  0  0  0  0  0  0  0  0  0  0
    1.3132    1.0996   -0.7760 C   0  0  0  0  0  0  0  0  0  0  0  0
    0.6973   -0.1588   -0.6657 C   0  0  0  0  0  0  0  0  0  0  0  0
    3.4027    0.1099    0.0623 C   0  0  0  0  0  0  0  0  0  0  0  0
   -1.7057   -0.6145    0.1498 C   0  0  0  0  0  0  0  0  0  0  0  0
    2.6528    1.1831   -0.4019 C   0  0  0  0  0  0  0  0  0  0  0  0
   -1.6336    0.3921    1.2306 N   0  0  0  0  0  0  0  0  0  0  0  0
    3.4136    2.3126   -0.4343 O   0  0  0  0  0  0  0  0  0  0  0  0
   -4.4105   -2.2608   -1.3521 H   0  0  0  0  0  0  0  0  0  0  0  0
   -2.8567   -1.9772   -2.1373 H   0  0  0  0  0  0  0  0  0  0  0  0
   -2.9408   -2.9753   -0.6698 H   0  0  0  0  0  0  0  0  0  0  0  0
   -1.6104    2.1515    0.0319 H   0  0  0  0  0  0  0  0  0  0  0  0
   -3.2100    1.7007    0.6792 H   0  0  0  0  0  0  0  0  0  0  0  0
   -1.9877    2.3844    1.7377 H   0  0  0  0  0  0  0  0  0  0  0  0
   -3.5401    0.0210   -0.8574 H   0  0  0  0  0  0  0  0  0  0  0  0
   -3.8030   -0.9591    0.5853 H   0  0  0  0  0  0  0  0  0  0  0  0
    0.9563   -2.2396   -0.1249 H   0  0  0  0  0  0  0  0  0  0  0  0
    3.3320   -2.0123    0.5205 H   0  0  0  0  0  0  0  0  0  0  0  0
    5.5579    0.0936    0.6990 H   0  0  0  0  0  0  0  0  0  0  0  0
    5.3748    2.7702    0.0382 H   0  0  0  0  0  0  0  0  0  0  0  0
   -1.1065    0.5682   -1.5904 H   0  0  0  0  0  0  0  0  0  0  0  0
   -0.8087   -1.1416   -1.7730 H   0  0  0  0  0  0  0  0  0  0  0  0
    0.7846    1.9765   -1.1305 H   0  0  0  0  0  0  0  0  0  0  0  0
   -1.3685   -1.5514    0.6131 H   0  0  0  0  0  0  0  0  0  0  0  0
   -0.6592    0.4801    1.5266 H   0  0  0  0  0  0  0  0  0  0  0  0
  1  3  1  0
  2 14  1  0
  3 12  1  0
  4  5  2  0
  4 10  1  0
  5 11  1  0
  6  7  2  0
  6 11  1  0
  7 15  1  0
  8 10  1  0
  8 12  1  0
  9 10  2  0
  9 13  1  0
 11 13  2  0
 12 14  1  0
 13 15  1  0
  1 16  1  0
  1 17  1  0
  1 18  1  0
  2 19  1  0
  2 20  1  0
  2 21  1  0
  3 22  1  0
  3 23  1  0
  4 24  1  0
  5 25  1  0
  6 26  1  0
  7 27  1  0
  8 28  1  0
  8 29  1  0
  9 30  1  0
 12 31  1  0
 14 32  1  0
M  END
