
     RDKit          3D

 33 34  0  0  0  0  0  0  0  0999 V2000
   -4.6106    0.3670   -0.1989 C   0  0  0  0  0  0  0  0  0  0  0  0
    4.3473   -0.5192    1.8759 C   0  0  0  0  0  0  0  0  0  0  0  0
   -3.6435   -0.1014   -1.2781 C   0  0  0  0  0  0  0  0  0  0  0  0
    3.0004    0.6159   -1.4972 C   0  0  0  0  0  0  0  0  0  0  0  0
    3.8538    0.2174   -0.4715 C   0  0  0  0  0  0  0  0  0  0  0  0
    1.6256    0.7161   -1.2757 C   0  0  0  0  0  0  0  0  0  0  0  0
   -1.4980    0.7633   -0.1661 C   0  0  0  0  0  0  0  0  0  0  0  0
   -0.1060    0.0107    1.8623 C   0  0  0  0  0  0  0  0  0  0  0  0
    3.3741   -0.0980    0.8138 C   0  0  0  0  0  0  0  0  0  0  0  0
   -0.2226    0.4038    0.5440 C   0  0  0  0  0  0  0  0  0  0  0  0
   -2.2459   -0.4622   -0.7422 C   0  0  0  0  0  0  0  0  0  0  0  0
    1.1021    0.4104   -0.0034 C   0  0  0  0  0  0  0  0  0  0  0  0
    1.9830    0.0123    1.0053 C   0  0  0  0  0  0  0  0  0  0  0  0
   -1.4910   -1.0690   -1.8532 N   0  0  0  0  0  0  0  0  0  0  0  0
    1.2163   -0.2189    2.1262 N   0  0  0  0  0  0  0  0  0  0  0  0
   -4.6678   -0.3572    0.6197 H   0  0  0  0  0  0  0  0  0  0  0  0
   -4.3192    1.3369    0.2132 H   0  0  0  0  0  0  0  0  0  0  0  0
   -5.6147    0.4800   -0.6209 H   0  0  0  0  0  0  0  0  0  0  0  0
    5.0698    0.2821    2.0614 H   0  0  0  0  0  0  0  0  0  0  0  0
    4.8856   -1.4175    1.5567 H   0  0  0  0  0  0  0  0  0  0  0  0
    3.8466   -0.7463    2.8213 H   0  0  0  0  0  0  0  0  0  0  0  0
   -4.0864   -0.9831   -1.7599 H   0  0  0  0  0  0  0  0  0  0  0  0
   -3.5664    0.6739   -2.0509 H   0  0  0  0  0  0  0  0  0  0  0  0
    3.4045    0.8510   -2.4784 H   0  0  0  0  0  0  0  0  0  0  0  0
    4.9212    0.1504   -0.6764 H   0  0  0  0  0  0  0  0  0  0  0  0
    0.9651    1.0233   -2.0818 H   0  0  0  0  0  0  0  0  0  0  0  0
   -1.2900    1.4879   -0.9638 H   0  0  0  0  0  0  0  0  0  0  0  0
   -2.1353    1.2867    0.5562 H   0  0  0  0  0  0  0  0  0  0  0  0
   -0.8521   -0.1213    2.6345 H   0  0  0  0  0  0  0  0  0  0  0  0
   -2.3534   -1.2212    0.0432 H   0  0  0  0  0  0  0  0  0  0  0  0
   -0.5534   -1.3049   -1.5204 H   0  0  0  0  0  0  0  0  0  0  0  0
   -1.9242   -1.9538   -2.1131 H   0  0  0  0  0  0  0  0  0  0  0  0
    1.5850   -0.5149    3.0184 H   0  0  0  0  0  0  0  0  0  0  0  0
  1  3  1  0
  2  9  1  0
  3 11  1  0
  4  5  2  0
  4  6  1  0
  5  9  1  0
  6 12  2  0
  7 10  1  0
  7 11  1  0
  8 10  2  0
  8 15  1  0
  9 13  2  0
 10 12  1  0
 11 14  1  0
 12 13  1  0
 13 15  1  0
  1 16  1  0
  1 17  1  0
  1 18  1  0
  2 19  1  0
  2 20  1  0
  2 21  1  0
  3 22  1  0
  3 23  1  0
  4 24  1  0
  5 25  1  0
  6 26  1  0
  7 27  1  0
  7 28  1  0
  8 29  1  0
 11 30  1  0
 14 31  1  0
 14 32  1  0
 15 33  1  0
M  END
