
     RDKit          3D

 34 35  0  0  0  0  0  0  0  0999 V2000
   -2.0290   -0.9177   -1.4684 C   0  0  0  0  0  0  0  0  0  0  0  0
   -3.4868    0.5943   -0.1618 C   0  0  0  0  0  0  0  0  0  0  0  0
   -1.1236    1.1963   -0.5374 C   0  0  0  0  0  0  0  0  0  0  0  0
    3.5670    0.8230   -1.3897 C   0  0  0  0  0  0  0  0  0  0  0  0
    3.5866    1.1424   -0.0180 C   0  0  0  0  0  0  0  0  0  0  0  0
   -0.4506   -1.5117    1.1484 C   0  0  0  0  0  0  0  0  0  0  0  0
   -1.7560   -0.7030    1.0567 C   0  0  0  0  0  0  0  0  0  0  0  0
    1.8212   -0.7457   -1.0799 C   0  0  0  0  0  0  0  0  0  0  0  0
    1.2172   -0.0322    2.4497 C   0  0  0  0  0  0  0  0  0  0  0  0
    0.7785   -0.6832    1.3115 C   0  0  0  0  0  0  0  0  0  0  0  0
    2.6848   -0.1008   -1.9772 C   0  0  0  0  0  0  0  0  0  0  0  0
    1.7189   -0.3835    0.2798 C   0  0  0  0  0  0  0  0  0  0  0  0
    2.6224    0.5398    0.7878 C   0  0  0  0  0  0  0  0  0  0  0  0
    2.3499    0.6746    2.1259 N   0  0  0  0  0  0  0  0  0  0  0  0
   -2.0775    0.0251   -0.2723 N   0  0  0  0  0  4  0  0  0  0  0  0
    2.6437   -0.3346   -3.2280 O   0  0  0  0  0  1  0  0  0  0  0  0
   -1.0116   -1.2769   -1.6089 H   0  0  0  0  0  0  0  0  0  0  0  0
   -2.3531   -0.3663   -2.3564 H   0  0  0  0  0  0  0  0  0  0  0  0
   -2.7060   -1.7540   -1.2714 H   0  0  0  0  0  0  0  0  0  0  0  0
   -3.5098    1.3013    0.6731 H   0  0  0  0  0  0  0  0  0  0  0  0
   -3.7392    1.1018   -1.0981 H   0  0  0  0  0  0  0  0  0  0  0  0
   -4.1831   -0.2310    0.0152 H   0  0  0  0  0  0  0  0  0  0  0  0
   -1.5968    1.8659   -1.2632 H   0  0  0  0  0  0  0  0  0  0  0  0
   -0.2051    0.8246   -0.9741 H   0  0  0  0  0  0  0  0  0  0  0  0
   -0.9511    1.7269    0.4025 H   0  0  0  0  0  0  0  0  0  0  0  0
    4.2844    1.3234   -2.0425 H   0  0  0  0  0  0  0  0  0  0  0  0
    4.3032    1.8573    0.3673 H   0  0  0  0  0  0  0  0  0  0  0  0
   -0.5261   -2.1565    2.0350 H   0  0  0  0  0  0  0  0  0  0  0  0
   -0.3544   -2.2005    0.3036 H   0  0  0  0  0  0  0  0  0  0  0  0
   -2.5902   -1.3987    1.2131 H   0  0  0  0  0  0  0  0  0  0  0  0
   -1.8053    0.0555    1.8479 H   0  0  0  0  0  0  0  0  0  0  0  0
    1.1601   -1.5049   -1.4868 H   0  0  0  0  0  0  0  0  0  0  0  0
    0.8285   -0.0013    3.4585 H   0  0  0  0  0  0  0  0  0  0  0  0
    2.8888    1.2500    2.7581 H   0  0  0  0  0  0  0  0  0  0  0  0
  1 15  1  0
  2 15  1  0
  3 15  1  0
  4  5  2  0
  4 11  1  0
  5 13  1  0
  6  7  1  0
  6 10  1  0
  7 15  1  0
  8 11  2  0
  8 12  1  0
  9 10  2  0
  9 14  1  0
 10 12  1  0
 11 16  1  0
 12 13  2  0
 13 14  1  0
  1 17  1  0
  1 18  1  0
  1 19  1  0
  2 20  1  0
  2 21  1  0
  2 22  1  0
  3 23  1  0
  3 24  1  0
  3 25  1  0
  4 26  1  0
  5 27  1  0
  6 28  1  0
  6 29  1  0
  7 30  1  0
  7 31  1  0
  8 32  1  0
  9 33  1  0
 14 34  1  0
M  CHG  2  15   1  16  -1
M  END
