
     RDKit          3D

 34 35  0  0  0  0  0  0  0  0999 V2000
    4.1913    1.1781   -0.7191 C   0  0  0  0  0  0  0  0  0  0  0  0
    2.9329    2.3364    0.9567 C   0  0  0  0  0  0  0  0  0  0  0  0
   -4.0312    1.4568   -2.5086 C   0  0  0  0  0  0  0  0  0  0  0  0
   -3.5901   -1.0007   -0.4519 C   0  0  0  0  0  0  0  0  0  0  0  0
   -2.9698   -2.2070   -0.1069 C   0  0  0  0  0  0  0  0  0  0  0  0
    1.4123   -0.2877    1.4177 C   0  0  0  0  0  0  0  0  0  0  0  0
    2.2069    0.1457    0.1727 C   0  0  0  0  0  0  0  0  0  0  0  0
   -1.6237    0.2586    0.1994 C   0  0  0  0  0  0  0  0  0  0  0  0
    0.3718   -2.6315    1.2179 C   0  0  0  0  0  0  0  0  0  0  0  0
    0.3201   -1.2582    1.0792 C   0  0  0  0  0  0  0  0  0  0  0  0
   -2.9276    0.2211   -0.3145 C   0  0  0  0  0  0  0  0  0  0  0  0
   -0.9743   -0.9434    0.5525 C   0  0  0  0  0  0  0  0  0  0  0  0
   -1.6631   -2.1447    0.3886 C   0  0  0  0  0  0  0  0  0  0  0  0
   -0.8238   -3.1520    0.8034 N   0  0  0  0  0  0  0  0  0  0  0  0
    3.3592    1.0198    0.4771 N   0  0  0  0  0  0  0  0  0  0  0  0
   -3.7250    1.7600   -0.7484 S   0  0  0  0  0  0  0  0  0  0  0  0
    5.0730    1.7899   -0.4971 H   0  0  0  0  0  0  0  0  0  0  0  0
    3.6438    1.6473   -1.5447 H   0  0  0  0  0  0  0  0  0  0  0  0
    4.5660    0.2066   -1.0603 H   0  0  0  0  0  0  0  0  0  0  0  0
    2.4105    2.2597    1.9151 H   0  0  0  0  0  0  0  0  0  0  0  0
    2.2769    2.8450    0.2410 H   0  0  0  0  0  0  0  0  0  0  0  0
    3.8025    2.9784    1.1394 H   0  0  0  0  0  0  0  0  0  0  0  0
   -3.0997    1.2020   -3.0217 H   0  0  0  0  0  0  0  0  0  0  0  0
   -4.7553    0.6496   -2.6457 H   0  0  0  0  0  0  0  0  0  0  0  0
   -4.4391    2.3647   -2.9610 H   0  0  0  0  0  0  0  0  0  0  0  0
   -4.6126   -1.0307   -0.8213 H   0  0  0  0  0  0  0  0  0  0  0  0
   -3.4926   -3.1515   -0.2156 H   0  0  0  0  0  0  0  0  0  0  0  0
    0.9618    0.5800    1.9131 H   0  0  0  0  0  0  0  0  0  0  0  0
    2.0927   -0.7472    2.1462 H   0  0  0  0  0  0  0  0  0  0  0  0
    1.5388    0.6297   -0.5526 H   0  0  0  0  0  0  0  0  0  0  0  0
    2.5784   -0.7674   -0.3125 H   0  0  0  0  0  0  0  0  0  0  0  0
   -1.1083    1.2062    0.3250 H   0  0  0  0  0  0  0  0  0  0  0  0
    1.1593   -3.2796    1.5798 H   0  0  0  0  0  0  0  0  0  0  0  0
   -1.0620   -4.1340    0.8022 H   0  0  0  0  0  0  0  0  0  0  0  0
  1 15  1  0
  2 15  1  0
  3 16  1  0
  4  5  2  0
  4 11  1  0
  5 13  1  0
  6  7  1  0
  6 10  1  0
  7 15  1  0
  8 11  2  0
  8 12  1  0
  9 10  2  0
  9 14  1  0
 10 12  1  0
 11 16  1  0
 12 13  2  0
 13 14  1  0
  1 17  1  0
  1 18  1  0
  1 19  1  0
  2 20  1  0
  2 21  1  0
  2 22  1  0
  3 23  1  0
  3 24  1  0
  3 25  1  0
  4 26  1  0
  5 27  1  0
  6 28  1  0
  6 29  1  0
  7 30  1  0
  7 31  1  0
  8 32  1  0
  9 33  1  0
 14 34  1  0
M  END
