
     RDKit          3D

 40 41  0  0  0  0  0  0  0  0999 V2000
   -3.8512    0.1701    0.2438 C   0  0  0  0  0  0  0  0  0  0  0  0
   -2.1329    1.9439   -0.1090 C   0  0  0  0  0  0  0  0  0  0  0  0
   -3.1699    0.8145   -2.0487 C   0  0  0  0  0  0  0  0  0  0  0  0
    4.2613   -1.1793    0.0710 C   0  0  0  0  0  0  0  0  0  0  0  0
    3.6744   -2.4404    0.1877 C   0  0  0  0  0  0  0  0  0  0  0  0
    3.4953   -0.0159    0.1423 C   0  0  0  0  0  0  0  0  0  0  0  0
   -1.0808   -0.9295    0.7316 C   0  0  0  0  0  0  0  0  0  0  0  0
   -1.5569   -0.4597   -0.6508 C   0  0  0  0  0  0  0  0  0  0  0  0
    0.1637   -3.1750    0.6619 C   0  0  0  0  0  0  0  0  0  0  0  0
    0.1355   -1.7949    0.6207 C   0  0  0  0  0  0  0  0  0  0  0  0
    2.2895   -2.4936    0.3716 C   0  0  0  0  0  0  0  0  0  0  0  0
    2.1112   -0.0800    0.3337 C   0  0  0  0  0  0  0  0  0  0  0  0
    1.4923   -1.3507    0.4433 C   0  0  0  0  0  0  0  0  0  0  0  0
    1.4634   -3.5832    0.5184 N   0  0  0  0  0  0  0  0  0  0  0  0
   -2.6765    0.6087   -0.6148 N   0  0  0  0  0  4  0  0  0  0  0  0
    2.8854    2.7252    1.5170 O   0  0  0  0  0  0  0  0  0  0  0  0
    2.5181    2.8093   -0.9543 O   0  0  0  0  0  0  0  0  0  0  0  0
    0.6001    3.5036    0.6079 O   0  0  0  0  0  0  0  0  0  0  0  0
    1.3090    1.0231    0.4237 O   0  0  0  0  0  0  0  0  0  0  0  0
    1.7435    2.5607    0.4179 P   0  0  0  0  0  5  0  0  0  0  0  0
   -3.5326    0.1346    1.2889 H   0  0  0  0  0  0  0  0  0  0  0  0
   -4.1790   -0.8162   -0.0970 H   0  0  0  0  0  0  0  0  0  0  0  0
   -4.6568    0.9017    0.1290 H   0  0  0  0  0  0  0  0  0  0  0  0
   -2.9366    2.6844   -0.1637 H   0  0  0  0  0  0  0  0  0  0  0  0
   -1.8070    1.8259    0.9265 H   0  0  0  0  0  0  0  0  0  0  0  0
   -1.3018    2.2377   -0.7548 H   0  0  0  0  0  0  0  0  0  0  0  0
   -2.3211    1.1225   -2.6665 H   0  0  0  0  0  0  0  0  0  0  0  0
   -3.5857   -0.1307   -2.4103 H   0  0  0  0  0  0  0  0  0  0  0  0
   -3.9405    1.5912   -2.0435 H   0  0  0  0  0  0  0  0  0  0  0  0
    5.3376   -1.1033   -0.0754 H   0  0  0  0  0  0  0  0  0  0  0  0
    4.2793   -3.3409    0.1361 H   0  0  0  0  0  0  0  0  0  0  0  0
    4.0106    0.9356    0.0445 H   0  0  0  0  0  0  0  0  0  0  0  0
   -1.8774   -1.5009    1.2237 H   0  0  0  0  0  0  0  0  0  0  0  0
   -0.8568   -0.0851    1.3903 H   0  0  0  0  0  0  0  0  0  0  0  0
   -1.9560   -1.3141   -1.2123 H   0  0  0  0  0  0  0  0  0  0  0  0
   -0.7365   -0.0286   -1.2372 H   0  0  0  0  0  0  0  0  0  0  0  0
   -0.6231   -3.9078    0.7888 H   0  0  0  0  0  0  0  0  0  0  0  0
    1.7799   -4.5445    0.5198 H   0  0  0  0  0  0  0  0  0  0  0  0
    2.5344    2.9255    2.4043 H   0  0  0  0  0  0  0  0  0  0  0  0
    2.6946    3.7560   -1.1060 H   0  0  0  0  0  0  0  0  0  0  0  0
  1 15  1  0
  2 15  1  0
  3 15  1  0
  4  5  2  0
  4  6  1  0
  5 11  1  0
  6 12  2  0
  7  8  1  0
  7 10  1  0
  8 15  1  0
  9 10  2  0
  9 14  1  0
 10 13  1  0
 11 13  2  0
 11 14  1  0
 12 13  1  0
 12 19  1  0
 16 20  1  0
 17 20  1  0
 18 20  2  0
 19 20  1  0
  1 21  1  0
  1 22  1  0
  1 23  1  0
  2 24  1  0
  2 25  1  0
  2 26  1  0
  3 27  1  0
  3 28  1  0
  3 29  1  0
  4 30  1  0
  5 31  1  0
  6 32  1  0
  7 33  1  0
  7 34  1  0
  8 35  1  0
  8 36  1  0
  9 37  1  0
 14 38  1  0
 16 39  1  0
 17 40  1  0
M  CHG  1  15   1
M  END
