
     RDKit          3D

 35 36  0  0  0  0  0  0  0  0999 V2000
   -4.3074   -1.6201   -0.3682 C   0  0  0  0  0  0  0  0  0  0  0  0
    5.0346   -0.5820   -0.0955 C   0  0  0  0  0  0  0  0  0  0  0  0
   -1.7376    2.8962    1.2859 C   0  0  0  0  0  0  0  0  0  0  0  0
   -2.1266   -0.5726   -1.0778 C   0  0  0  0  0  0  0  0  0  0  0  0
    3.1761    1.0730    0.4233 C   0  0  0  0  0  0  0  0  0  0  0  0
    0.6306    1.5511    0.5501 C   0  0  0  0  0  0  0  0  0  0  0  0
    0.3855   -0.7472   -1.0728 C   0  0  0  0  0  0  0  0  0  0  0  0
   -2.8596   -1.3478    0.0373 C   0  0  0  0  0  0  0  0  0  0  0  0
    3.8002    0.1331   -0.6199 C   0  0  0  0  0  0  0  0  0  0  0  0
   -0.7646   -0.0531   -0.6564 C   0  0  0  0  0  0  0  0  0  0  0  0
    1.7450    0.8529    0.1139 C   0  0  0  0  0  0  0  0  0  0  0  0
   -0.6383    1.1020    0.1587 C   0  0  0  0  0  0  0  0  0  0  0  0
    1.6172   -0.2709   -0.6812 C   0  0  0  0  0  0  0  0  0  0  0  0
   -2.2071   -2.6344    0.3204 N   0  0  0  0  0  0  0  0  0  0  0  0
   -1.8186    1.7018    0.5194 O   0  0  0  0  0  0  0  0  0  0  0  0
    2.8117   -0.8567   -1.0069 O   0  0  0  0  0  0  0  0  0  0  0  0
   -4.8405   -0.6806   -0.5499 H   0  0  0  0  0  0  0  0  0  0  0  0
   -4.8445   -2.1559    0.4225 H   0  0  0  0  0  0  0  0  0  0  0  0
   -4.3628   -2.2213   -1.2828 H   0  0  0  0  0  0  0  0  0  0  0  0
    5.4454   -1.2453   -0.8642 H   0  0  0  0  0  0  0  0  0  0  0  0
    4.7864   -1.2148    0.7637 H   0  0  0  0  0  0  0  0  0  0  0  0
    5.8088    0.1310    0.2030 H   0  0  0  0  0  0  0  0  0  0  0  0
   -1.1951    3.6785    0.7448 H   0  0  0  0  0  0  0  0  0  0  0  0
   -1.2876    2.7054    2.2656 H   0  0  0  0  0  0  0  0  0  0  0  0
   -2.7578    3.2548    1.4536 H   0  0  0  0  0  0  0  0  0  0  0  0
   -2.0216   -1.2059   -1.9695 H   0  0  0  0  0  0  0  0  0  0  0  0
   -2.7352    0.2801   -1.4070 H   0  0  0  0  0  0  0  0  0  0  0  0
    3.3918    0.7585    1.4499 H   0  0  0  0  0  0  0  0  0  0  0  0
    3.4978    2.1077    0.2759 H   0  0  0  0  0  0  0  0  0  0  0  0
    0.7700    2.4166    1.1861 H   0  0  0  0  0  0  0  0  0  0  0  0
    0.3151   -1.6393   -1.6872 H   0  0  0  0  0  0  0  0  0  0  0  0
   -2.8666   -0.7585    0.9617 H   0  0  0  0  0  0  0  0  0  0  0  0
    4.0647    0.6958   -1.5257 H   0  0  0  0  0  0  0  0  0  0  0  0
   -1.2451   -2.4559    0.6123 H   0  0  0  0  0  0  0  0  0  0  0  0
   -2.6644   -3.0757    1.1168 H   0  0  0  0  0  0  0  0  0  0  0  0
  1  8  1  0
  2  9  1  0
  3 15  1  0
  4  8  1  0
  4 10  1  0
  5  9  1  0
  5 11  1  0
  6 11  2  0
  6 12  1  0
  7 10  1  0
  7 13  2  0
  8 14  1  0
  9 16  1  0
 10 12  2  0
 11 13  1  0
 12 15  1  0
 13 16  1  0
  1 17  1  0
  1 18  1  0
  1 19  1  0
  2 20  1  0
  2 21  1  0
  2 22  1  0
  3 23  1  0
  3 24  1  0
  3 25  1  0
  4 26  1  0
  4 27  1  0
  5 28  1  0
  5 29  1  0
  6 30  1  0
  7 31  1  0
  8 32  1  0
  9 33  1  0
 14 34  1  0
 14 35  1  0
M  END
