
     RDKit          3D

 39 39  0  0  0  0  0  0  0  0999 V2000
   -1.1994    2.8914    0.9398 C   0  0  0  0  0  0  0  0  0  0  0  0
    1.8892    1.9415   -0.6376 C   0  0  0  0  0  0  0  0  0  0  0  0
    2.8390   -1.1030    1.2899 C   0  0  0  0  0  0  0  0  0  0  0  0
    3.3535   -2.0578   -0.8442 C   0  0  0  0  0  0  0  0  0  0  0  0
   -1.1088    2.4621   -0.5194 C   0  0  0  0  0  0  0  0  0  0  0  0
   -3.3590   -1.4958   -1.0141 C   0  0  0  0  0  0  0  0  0  0  0  0
   -2.4140   -0.5208   -1.3443 C   0  0  0  0  0  0  0  0  0  0  0  0
   -3.4396   -1.9791    0.2902 C   0  0  0  0  0  0  0  0  0  0  0  0
   -1.6293   -0.5055    0.9349 C   0  0  0  0  0  0  0  0  0  0  0  0
    1.4787   -0.5569   -0.6541 C   0  0  0  0  0  0  0  0  0  0  0  0
    0.9248    0.8256   -0.1988 C   0  0  0  0  0  0  0  0  0  0  0  0
   -1.5298   -0.0154   -0.3759 C   0  0  0  0  0  0  0  0  0  0  0  0
   -2.5735   -1.4775    1.2546 C   0  0  0  0  0  0  0  0  0  0  0  0
   -0.5138    1.0539   -0.7759 C   0  0  0  0  0  0  0  0  0  0  0  0
    2.8336   -0.8721   -0.1570 N   0  0  0  0  0  0  0  0  0  0  0  0
   -2.6178   -1.9169    2.5453 O   0  0  0  0  0  0  0  0  0  0  0  0
   -1.5751    3.9185    0.9990 H   0  0  0  0  0  0  0  0  0  0  0  0
   -1.8912    2.2608    1.5042 H   0  0  0  0  0  0  0  0  0  0  0  0
   -0.2248    2.8689    1.4343 H   0  0  0  0  0  0  0  0  0  0  0  0
    1.5789    2.9168   -0.2523 H   0  0  0  0  0  0  0  0  0  0  0  0
    2.9013    1.7694   -0.2578 H   0  0  0  0  0  0  0  0  0  0  0  0
    1.9444    2.0073   -1.7294 H   0  0  0  0  0  0  0  0  0  0  0  0
    2.1543   -1.9068    1.5837 H   0  0  0  0  0  0  0  0  0  0  0  0
    3.8458   -1.3698    1.6317 H   0  0  0  0  0  0  0  0  0  0  0  0
    2.5672   -0.1961    1.8383 H   0  0  0  0  0  0  0  0  0  0  0  0
    4.3743   -2.2788   -0.5127 H   0  0  0  0  0  0  0  0  0  0  0  0
    2.7331   -2.9441   -0.6677 H   0  0  0  0  0  0  0  0  0  0  0  0
    3.4092   -1.8839   -1.9246 H   0  0  0  0  0  0  0  0  0  0  0  0
   -2.1143    2.5199   -0.9569 H   0  0  0  0  0  0  0  0  0  0  0  0
   -0.5139    3.2074   -1.0610 H   0  0  0  0  0  0  0  0  0  0  0  0
   -4.0330   -1.8756   -1.7775 H   0  0  0  0  0  0  0  0  0  0  0  0
   -2.3730   -0.1553   -2.3686 H   0  0  0  0  0  0  0  0  0  0  0  0
   -4.1779   -2.7362    0.5329 H   0  0  0  0  0  0  0  0  0  0  0  0
   -0.9791   -0.1359    1.7227 H   0  0  0  0  0  0  0  0  0  0  0  0
    1.5029   -0.5488   -1.7527 H   0  0  0  0  0  0  0  0  0  0  0  0
    0.7937   -1.3634   -0.3669 H   0  0  0  0  0  0  0  0  0  0  0  0
    0.8750    0.8466    0.8949 H   0  0  0  0  0  0  0  0  0  0  0  0
   -0.4038    0.9801   -1.8689 H   0  0  0  0  0  0  0  0  0  0  0  0
   -3.3276   -2.5750    2.6221 H   0  0  0  0  0  0  0  0  0  0  0  0
  1  5  1  0
  2 11  1  0
  3 15  1  0
  4 15  1  0
  5 14  1  0
  6  7  2  0
  6  8  1  0
  7 12  1  0
  8 13  2  0
  9 12  2  0
  9 13  1  0
 10 11  1  0
 10 15  1  0
 11 14  1  0
 12 14  1  0
 13 16  1  0
  1 17  1  0
  1 18  1  0
  1 19  1  0
  2 20  1  0
  2 21  1  0
  2 22  1  0
  3 23  1  0
  3 24  1  0
  3 25  1  0
  4 26  1  0
  4 27  1  0
  4 28  1  0
  5 29  1  0
  5 30  1  0
  6 31  1  0
  7 32  1  0
  8 33  1  0
  9 34  1  0
 10 35  1  0
 10 36  1  0
 11 37  1  0
 14 38  1  0
 16 39  1  0
M  END
