
     RDKit          3D

 37 37  0  0  0  0  0  0  0  0999 V2000
    3.4179    0.7433   -2.5932 C   0  0  0  0  0  0  0  0  0  0  0  0
    3.0228   -1.0400    2.0813 C   0  0  0  0  0  0  0  0  0  0  0  0
   -3.5465    0.3037   -2.2634 C   0  0  0  0  0  0  0  0  0  0  0  0
   -1.6739    0.5085    3.5687 C   0  0  0  0  0  0  0  0  0  0  0  0
    3.0204   -0.6271   -2.0731 C   0  0  0  0  0  0  0  0  0  0  0  0
    0.6382   -0.2364    2.1203 C   0  0  0  0  0  0  0  0  0  0  0  0
   -1.7360    0.9736   -0.6302 C   0  0  0  0  0  0  0  0  0  0  0  0
    0.6478    0.1607   -0.6327 C   0  0  0  0  0  0  0  0  0  0  0  0
    1.7977   -0.5207    1.3781 C   0  0  0  0  0  0  0  0  0  0  0  0
   -2.6844   -0.1564   -1.0893 C   0  0  0  0  0  0  0  0  0  0  0  0
   -0.5141    0.4549    0.1091 C   0  0  0  0  0  0  0  0  0  0  0  0
    1.7994   -0.3274   -0.0122 C   0  0  0  0  0  0  0  0  0  0  0  0
   -0.5155    0.2484    1.4979 C   0  0  0  0  0  0  0  0  0  0  0  0
   -3.5840   -0.5836   -0.0123 N   0  0  0  0  0  0  0  0  0  0  0  0
   -1.6880    0.5284    2.1472 O   0  0  0  0  0  0  0  0  0  0  0  0
    2.9725   -0.6325   -0.6480 O   0  0  0  0  0  0  0  0  0  0  0  0
    3.5224    0.7279   -3.6818 H   0  0  0  0  0  0  0  0  0  0  0  0
    2.6794    1.5043   -2.3248 H   0  0  0  0  0  0  0  0  0  0  0  0
    4.3701    1.0579   -2.1531 H   0  0  0  0  0  0  0  0  0  0  0  0
    3.8691   -0.3649    1.9175 H   0  0  0  0  0  0  0  0  0  0  0  0
    2.8658   -1.1155    3.1624 H   0  0  0  0  0  0  0  0  0  0  0  0
    3.2762   -2.0390    1.7120 H   0  0  0  0  0  0  0  0  0  0  0  0
   -4.1594    1.1720   -1.9961 H   0  0  0  0  0  0  0  0  0  0  0  0
   -4.2174   -0.4957   -2.5977 H   0  0  0  0  0  0  0  0  0  0  0  0
   -2.9192    0.5841   -3.1165 H   0  0  0  0  0  0  0  0  0  0  0  0
   -0.9253    1.1999    3.9695 H   0  0  0  0  0  0  0  0  0  0  0  0
   -2.6559    0.8432    3.9166 H   0  0  0  0  0  0  0  0  0  0  0  0
   -1.5175   -0.5078    3.9443 H   0  0  0  0  0  0  0  0  0  0  0  0
    3.8003   -1.3426   -2.3581 H   0  0  0  0  0  0  0  0  0  0  0  0
    2.0957   -0.9979   -2.5285 H   0  0  0  0  0  0  0  0  0  0  0  0
    0.6618   -0.4106    3.1913 H   0  0  0  0  0  0  0  0  0  0  0  0
   -1.3861    1.5394   -1.5046 H   0  0  0  0  0  0  0  0  0  0  0  0
   -2.2683    1.7131   -0.0176 H   0  0  0  0  0  0  0  0  0  0  0  0
    0.6233    0.3365   -1.7031 H   0  0  0  0  0  0  0  0  0  0  0  0
   -2.0937   -1.0222   -1.4134 H   0  0  0  0  0  0  0  0  0  0  0  0
   -3.0444   -0.6695    0.8529 H   0  0  0  0  0  0  0  0  0  0  0  0
   -3.9510   -1.5101   -0.2196 H   0  0  0  0  0  0  0  0  0  0  0  0
  1  5  1  0
  2  9  1  0
  3 10  1  0
  4 15  1  0
  5 16  1  0
  6  9  2  0
  6 13  1  0
  7 10  1  0
  7 11  1  0
  8 11  1  0
  8 12  2  0
  9 12  1  0
 10 14  1  0
 11 13  2  0
 12 16  1  0
 13 15  1  0
  1 17  1  0
  1 18  1  0
  1 19  1  0
  2 20  1  0
  2 21  1  0
  2 22  1  0
  3 23  1  0
  3 24  1  0
  3 25  1  0
  4 26  1  0
  4 27  1  0
  4 28  1  0
  5 29  1  0
  5 30  1  0
  6 31  1  0
  7 32  1  0
  7 33  1  0
  8 34  1  0
 10 35  1  0
 14 36  1  0
 14 37  1  0
M  END
