
     RDKit          3D

 38 38  0  0  0  0  0  0  0  0999 V2000
    4.2495   -1.1831   -0.8578 C   0  0  0  0  0  0  0  0  0  0  0  0
   -2.2906    3.4338    0.7977 C   0  0  0  0  0  0  0  0  0  0  0  0
   -1.4696   -3.7278    0.7913 C   0  0  0  0  0  0  0  0  0  0  0  0
   -4.3930   -0.3912   -0.5372 C   0  0  0  0  0  0  0  0  0  0  0  0
    3.8635    0.2832   -1.0052 C   0  0  0  0  0  0  0  0  0  0  0  0
    1.8165    0.2799    0.5439 C   0  0  0  0  0  0  0  0  0  0  0  0
   -0.5298    1.2285    0.6619 C   0  0  0  0  0  0  0  0  0  0  0  0
   -0.2507   -1.1805    0.5904 C   0  0  0  0  0  0  0  0  0  0  0  0
    0.3122    0.1065    0.6045 C   0  0  0  0  0  0  0  0  0  0  0  0
    2.3478    0.5357   -0.8863 C   0  0  0  0  0  0  0  0  0  0  0  0
   -1.9179    1.0802    0.7076 C   0  0  0  0  0  0  0  0  0  0  0  0
   -1.6360   -1.3535    0.6434 C   0  0  0  0  0  0  0  0  0  0  0  0
   -2.4603   -0.2160    0.6840 C   0  0  0  0  0  0  0  0  0  0  0  0
    2.0811    1.9283   -1.2875 N   0  0  0  0  0  0  0  0  0  0  0  0
   -2.8165    2.1147    0.7670 O   0  0  0  0  0  0  0  0  0  0  0  0
   -2.2743   -2.5675    0.6382 O   0  0  0  0  0  0  0  0  0  0  0  0
   -3.8269   -0.3789    0.7719 O   0  0  0  0  0  0  0  0  0  0  0  0
    4.0727   -1.5519    0.1559 H   0  0  0  0  0  0  0  0  0  0  0  0
    3.6881   -1.8093   -1.5582 H   0  0  0  0  0  0  0  0  0  0  0  0
    5.3159   -1.3113   -1.0708 H   0  0  0  0  0  0  0  0  0  0  0  0
   -1.6716    3.5928    1.6868 H   0  0  0  0  0  0  0  0  0  0  0  0
   -1.7350    3.6591   -0.1186 H   0  0  0  0  0  0  0  0  0  0  0  0
   -3.1343    4.1285    0.8527 H   0  0  0  0  0  0  0  0  0  0  0  0
   -0.8786   -3.6851    1.7123 H   0  0  0  0  0  0  0  0  0  0  0  0
   -2.1382   -4.5910    0.8654 H   0  0  0  0  0  0  0  0  0  0  0  0
   -0.8292   -3.8786   -0.0838 H   0  0  0  0  0  0  0  0  0  0  0  0
   -5.4734   -0.5294   -0.4326 H   0  0  0  0  0  0  0  0  0  0  0  0
   -4.0035   -1.2233   -1.1340 H   0  0  0  0  0  0  0  0  0  0  0  0
   -4.2239    0.5585   -1.0563 H   0  0  0  0  0  0  0  0  0  0  0  0
    4.2120    0.6180   -1.9911 H   0  0  0  0  0  0  0  0  0  0  0  0
    4.4087    0.8762   -0.2602 H   0  0  0  0  0  0  0  0  0  0  0  0
    2.1164    1.0926    1.2196 H   0  0  0  0  0  0  0  0  0  0  0  0
    2.2721   -0.6212    0.9695 H   0  0  0  0  0  0  0  0  0  0  0  0
   -0.0691    2.2114    0.6592 H   0  0  0  0  0  0  0  0  0  0  0  0
    0.4164   -2.0344    0.5355 H   0  0  0  0  0  0  0  0  0  0  0  0
    1.8254   -0.1206   -1.5934 H   0  0  0  0  0  0  0  0  0  0  0  0
    2.6519    2.5633   -0.7306 H   0  0  0  0  0  0  0  0  0  0  0  0
    2.3725    2.0632   -2.2554 H   0  0  0  0  0  0  0  0  0  0  0  0
  1  5  1  0
  2 15  1  0
  3 16  1  0
  4 17  1  0
  5 10  1  0
  6  9  1  0
  6 10  1  0
  7  9  2  0
  7 11  1  0
  8  9  1  0
  8 12  2  0
 10 14  1  0
 11 13  2  0
 11 15  1  0
 12 13  1  0
 12 16  1  0
 13 17  1  0
  1 18  1  0
  1 19  1  0
  1 20  1  0
  2 21  1  0
  2 22  1  0
  2 23  1  0
  3 24  1  0
  3 25  1  0
  3 26  1  0
  4 27  1  0
  4 28  1  0
  4 29  1  0
  5 30  1  0
  5 31  1  0
  6 32  1  0
  6 33  1  0
  7 34  1  0
  8 35  1  0
 10 36  1  0
 14 37  1  0
 14 38  1  0
M  END
