
     RDKit          3D

 27 29  0  0  0  0  0  0  0  0999 V2000
    3.4094    1.0772   -1.7332 C   0  0  0  0  0  0  0  0  0  0  0  0
    2.0480    0.8168   -1.3995 C   0  0  0  0  0  0  0  0  0  0  0  0
   -2.5995    2.0982    0.5383 C   0  0  0  0  0  0  0  0  0  0  0  0
   -2.8241    0.7924    0.0966 C   0  0  0  0  0  0  0  0  0  0  0  0
    4.2767    0.3264   -0.9741 C   0  0  0  0  0  0  0  0  0  0  0  0
   -0.2535    1.5919    0.8004 C   0  0  0  0  0  0  0  0  0  0  0  0
   -0.5276   -2.4353    1.2016 C   0  0  0  0  0  0  0  0  0  0  0  0
   -1.3143    2.4888    0.8954 C   0  0  0  0  0  0  0  0  0  0  0  0
   -0.4771    0.2836    0.3330 C   0  0  0  0  0  0  0  0  0  0  0  0
   -1.7785   -0.1376    0.0030 C   0  0  0  0  0  0  0  0  0  0  0  0
    1.9153   -0.1206   -0.3883 C   0  0  0  0  0  0  0  0  0  0  0  0
   -1.5808   -2.4444    0.1249 C   0  0  0  0  0  0  0  0  0  0  0  0
    0.6951   -0.6403    0.2295 C   0  0  0  0  0  0  0  0  0  0  0  0
   -1.0039    4.2480    1.5106 Br  0  0  0  0  0  0  0  0  0  0  0  0
    0.6981   -1.8649    0.6438 N   0  0  0  0  0  0  0  0  0  0  0  0
   -2.1347   -1.4240   -0.4389 N   0  0  0  0  0  0  0  0  0  0  0  0
   -1.9672   -3.6585   -0.2883 O   0  0  0  0  0  0  0  0  0  0  0  0
    3.4528   -0.6866    0.1276 S   0  0  0  0  0  0  0  0  0  0  0  0
    3.7347    1.7734   -2.4966 H   0  0  0  0  0  0  0  0  0  0  0  0
    1.2081    1.2918   -1.8928 H   0  0  0  0  0  0  0  0  0  0  0  0
   -3.4335    2.7925    0.6044 H   0  0  0  0  0  0  0  0  0  0  0  0
   -3.8330    0.4868   -0.1745 H   0  0  0  0  0  0  0  0  0  0  0  0
    5.3573    0.3157   -1.0163 H   0  0  0  0  0  0  0  0  0  0  0  0
    0.7450    1.9075    1.0960 H   0  0  0  0  0  0  0  0  0  0  0  0
   -0.3259   -3.4634    1.5197 H   0  0  0  0  0  0  0  0  0  0  0  0
   -0.8771   -1.8866    2.0829 H   0  0  0  0  0  0  0  0  0  0  0  0
   -2.6098   -3.5287   -1.0052 H   0  0  0  0  0  0  0  0  0  0  0  0
  1  2  1  0
  1  5  2  0
  2 11  2  0
  3  4  2  0
  3  8  1  0
  4 10  1  0
  5 18  1  0
  6  8  2  0
  6  9  1  0
  7 12  1  0
  7 15  1  0
  8 14  1  0
  9 10  2  0
  9 13  1  0
 10 16  1  0
 11 13  1  0
 11 18  1  0
 12 16  2  0
 12 17  1  0
 13 15  2  0
  1 19  1  0
  2 20  1  0
  3 21  1  0
  4 22  1  0
  5 23  1  0
  6 24  1  0
  7 25  1  0
  7 26  1  0
 17 27  1  0
M  END
