
     RDKit          3D

 27 29  0  0  0  0  0  0  0  0999 V2000
    3.9689   -0.1548   -0.7466 C   0  0  0  0  0  0  0  0  0  0  0  0
    3.4558   -1.3075   -0.1528 C   0  0  0  0  0  0  0  0  0  0  0  0
    3.1177    0.8982   -1.0811 C   0  0  0  0  0  0  0  0  0  0  0  0
    2.0894   -1.4055    0.1155 C   0  0  0  0  0  0  0  0  0  0  0  0
    1.7500    0.8050   -0.8144 C   0  0  0  0  0  0  0  0  0  0  0  0
   -0.4762    1.7358    1.4001 C   0  0  0  0  0  0  0  0  0  0  0  0
   -2.1941   -1.8298    0.2891 C   0  0  0  0  0  0  0  0  0  0  0  0
    1.2324   -0.3433   -0.1999 C   0  0  0  0  0  0  0  0  0  0  0  0
   -0.9670    0.7116    0.5148 C   0  0  0  0  0  0  0  0  0  0  0  0
   -1.3957    2.7316    1.5809 C   0  0  0  0  0  0  0  0  0  0  0  0
   -3.0529   -0.9943   -0.6296 C   0  0  0  0  0  0  0  0  0  0  0  0
   -0.2252   -0.4793    0.0946 C   0  0  0  0  0  0  0  0  0  0  0  0
   -2.2667    0.9836    0.0964 C   0  0  0  0  0  0  0  0  0  0  0  0
   -1.2039    4.1363    2.5487 Cl  0  0  0  0  0  0  0  0  0  0  0  0
   -0.7727   -1.6431   -0.0182 N   0  0  0  0  0  0  0  0  0  0  0  0
   -3.1033    0.2926   -0.7232 N   0  0  0  0  0  0  0  0  0  0  0  0
   -3.8746   -1.6983   -1.4240 O   0  0  0  0  0  0  0  0  0  0  0  0
   -2.8286    2.4833    0.7323 S   0  0  0  0  0  0  0  0  0  0  0  0
    5.0329   -0.0819   -0.9592 H   0  0  0  0  0  0  0  0  0  0  0  0
    4.1180   -2.1331    0.0959 H   0  0  0  0  0  0  0  0  0  0  0  0
    3.5189    1.7887   -1.5592 H   0  0  0  0  0  0  0  0  0  0  0  0
    1.6962   -2.3120    0.5709 H   0  0  0  0  0  0  0  0  0  0  0  0
    1.1009    1.6255   -1.1095 H   0  0  0  0  0  0  0  0  0  0  0  0
    0.4997    1.7316    1.8710 H   0  0  0  0  0  0  0  0  0  0  0  0
   -2.4164   -1.5929    1.3357 H   0  0  0  0  0  0  0  0  0  0  0  0
   -2.4410   -2.8871    0.1442 H   0  0  0  0  0  0  0  0  0  0  0  0
   -4.3625   -1.0611   -1.9724 H   0  0  0  0  0  0  0  0  0  0  0  0
  1  2  2  0
  1  3  1  0
  2  4  1  0
  3  5  2  0
  4  8  2  0
  5  8  1  0
  6  9  1  0
  6 10  2  0
  7 11  1  0
  7 15  1  0
  8 12  1  0
  9 12  1  0
  9 13  2  0
 10 14  1  0
 10 18  1  0
 11 16  2  0
 11 17  1  0
 12 15  2  0
 13 16  1  0
 13 18  1  0
  1 19  1  0
  2 20  1  0
  3 21  1  0
  4 22  1  0
  5 23  1  0
  6 24  1  0
  7 25  1  0
  7 26  1  0
 17 27  1  0
M  END
