
     RDKit          3D

 30 32  0  0  0  0  0  0  0  0999 V2000
   -3.1010    0.7724   -1.2898 C   0  0  0  0  0  0  0  0  0  0  0  0
    3.9176   -1.5649   -1.4429 C   0  0  0  0  0  0  0  0  0  0  0  0
    2.7097   -2.1103   -0.9479 C   0  0  0  0  0  0  0  0  0  0  0  0
   -0.6610    2.7866    1.5844 C   0  0  0  0  0  0  0  0  0  0  0  0
   -1.5237    2.0535    0.7633 C   0  0  0  0  0  0  0  0  0  0  0  0
    3.8138   -0.2049   -1.2813 C   0  0  0  0  0  0  0  0  0  0  0  0
    0.9428    0.9947    1.4884 C   0  0  0  0  0  0  0  0  0  0  0  0
   -1.4221   -2.1029    0.5780 C   0  0  0  0  0  0  0  0  0  0  0  0
    0.5639    2.2482    1.9532 C   0  0  0  0  0  0  0  0  0  0  0  0
    0.0898    0.2641    0.6391 C   0  0  0  0  0  0  0  0  0  0  0  0
   -1.1820    0.7683    0.2979 C   0  0  0  0  0  0  0  0  0  0  0  0
    1.9393   -1.0505   -0.5011 C   0  0  0  0  0  0  0  0  0  0  0  0
   -2.3091   -1.3475   -0.4021 C   0  0  0  0  0  0  0  0  0  0  0  0
    0.6073   -1.0188    0.0799 C   0  0  0  0  0  0  0  0  0  0  0  0
    1.6174    3.1387    2.9788 Cl  0  0  0  0  0  0  0  0  0  0  0  0
   -0.0566   -2.1262    0.0664 N   0  0  0  0  0  0  0  0  0  0  0  0
   -2.1327    0.0389   -0.4844 N   0  0  0  0  0  0  0  0  0  0  0  0
   -3.1829   -1.9420   -1.0396 O   0  0  0  0  0  0  0  0  0  0  0  0
    2.6220    0.1179   -0.7184 O   0  0  0  0  0  0  0  0  0  0  0  0
   -2.6434    1.6695   -1.7187 H   0  0  0  0  0  0  0  0  0  0  0  0
   -3.9578    1.0394   -0.6632 H   0  0  0  0  0  0  0  0  0  0  0  0
   -3.4616    0.1590   -2.1216 H   0  0  0  0  0  0  0  0  0  0  0  0
    4.7553   -2.0969   -1.8712 H   0  0  0  0  0  0  0  0  0  0  0  0
    2.4165   -3.1513   -0.9168 H   0  0  0  0  0  0  0  0  0  0  0  0
   -0.9616    3.7689    1.9414 H   0  0  0  0  0  0  0  0  0  0  0  0
   -2.4897    2.4977    0.5346 H   0  0  0  0  0  0  0  0  0  0  0  0
    4.4649    0.6280   -1.5082 H   0  0  0  0  0  0  0  0  0  0  0  0
    1.9131    0.5926    1.7729 H   0  0  0  0  0  0  0  0  0  0  0  0
   -1.5013   -1.6881    1.5892 H   0  0  0  0  0  0  0  0  0  0  0  0
   -1.7869   -3.1343    0.6397 H   0  0  0  0  0  0  0  0  0  0  0  0
  1 17  1  0
  2  3  1  0
  2  6  2  0
  3 12  2  0
  4  5  2  0
  4  9  1  0
  5 11  1  0
  6 19  1  0
  7  9  2  0
  7 10  1  0
  8 13  1  0
  8 16  1  0
  9 15  1  0
 10 11  2  0
 10 14  1  0
 11 17  1  0
 12 14  1  0
 12 19  1  0
 13 17  1  0
 13 18  2  0
 14 16  2  0
  1 20  1  0
  1 21  1  0
  1 22  1  0
  2 23  1  0
  3 24  1  0
  4 25  1  0
  5 26  1  0
  6 27  1  0
  7 28  1  0
  8 29  1  0
  8 30  1  0
M  END
