
     RDKit          3D

 34 36  0  0  0  0  0  0  0  0999 V2000
    0.4134    2.7727   -1.2263 C   0  0  0  0  0  0  0  0  0  0  0  0
    4.9580    0.0013    0.3168 C   0  0  0  0  0  0  0  0  0  0  0  0
   -4.0272   -1.5190    1.1828 C   0  0  0  0  0  0  0  0  0  0  0  0
   -2.7407   -1.8462    0.7493 C   0  0  0  0  0  0  0  0  0  0  0  0
   -3.6440    0.7822    0.5720 C   0  0  0  0  0  0  0  0  0  0  0  0
    0.5518    0.9222    0.4036 C   0  0  0  0  0  0  0  0  0  0  0  0
    3.0540   -0.9548   -0.6871 C   0  0  0  0  0  0  0  0  0  0  0  0
   -0.1580   -2.4833   -0.5612 C   0  0  0  0  0  0  0  0  0  0  0  0
   -4.4715   -0.2056    1.0978 C   0  0  0  0  0  0  0  0  0  0  0  0
   -2.3396    0.4765    0.1342 C   0  0  0  0  0  0  0  0  0  0  0  0
    1.6019   -1.2699   -0.5309 C   0  0  0  0  0  0  0  0  0  0  0  0
   -1.8815   -0.8532    0.2374 C   0  0  0  0  0  0  0  0  0  0  0  0
    0.5642   -0.4595   -0.1025 C   0  0  0  0  0  0  0  0  0  0  0  0
   -1.6336    1.5974   -0.5634 C   0  0  0  0  0  0  0  0  0  0  0  0
   -6.0564    0.1954    1.6309 Cl  0  0  0  0  0  0  0  0  0  0  0  0
    1.1293   -2.5288   -0.8175 N   0  0  0  0  0  0  0  0  0  0  0  0
   -0.2539    1.7011   -0.5067 N   0  0  0  0  0  0  0  0  0  0  0  0
   -0.5707   -1.2377   -0.1443 N   0  0  0  0  0  0  0  0  0  0  0  0
   -2.3269    2.4065   -1.1798 O   0  0  0  0  0  0  0  0  0  0  0  0
    3.5593   -0.2194    0.4339 O   0  0  0  0  0  0  0  0  0  0  0  0
    0.7217    3.5377   -0.5074 H   0  0  0  0  0  0  0  0  0  0  0  0
   -0.2399    3.2304   -1.9737 H   0  0  0  0  0  0  0  0  0  0  0  0
    1.2944    2.3673   -1.7330 H   0  0  0  0  0  0  0  0  0  0  0  0
    5.2893    0.5761    1.1858 H   0  0  0  0  0  0  0  0  0  0  0  0
    5.4971   -0.9508    0.3026 H   0  0  0  0  0  0  0  0  0  0  0  0
    5.1814    0.5755   -0.5875 H   0  0  0  0  0  0  0  0  0  0  0  0
   -4.6736   -2.2929    1.5905 H   0  0  0  0  0  0  0  0  0  0  0  0
   -2.4211   -2.8802    0.8635 H   0  0  0  0  0  0  0  0  0  0  0  0
   -4.0228    1.7995    0.4772 H   0  0  0  0  0  0  0  0  0  0  0  0
    1.5560    1.3516    0.4633 H   0  0  0  0  0  0  0  0  0  0  0  0
    0.1155    0.9724    1.4081 H   0  0  0  0  0  0  0  0  0  0  0  0
    3.6185   -1.8892   -0.7894 H   0  0  0  0  0  0  0  0  0  0  0  0
    3.1928   -0.3612   -1.5983 H   0  0  0  0  0  0  0  0  0  0  0  0
   -0.8370   -3.3143   -0.6956 H   0  0  0  0  0  0  0  0  0  0  0  0
  1 17  1  0
  2 20  1  0
  3  4  2  0
  3  9  1  0
  4 12  1  0
  5  9  2  0
  5 10  1  0
  6 13  1  0
  6 17  1  0
  7 11  1  0
  7 20  1  0
  8 16  2  0
  8 18  1  0
  9 15  1  0
 10 12  2  0
 10 14  1  0
 11 13  2  0
 11 16  1  0
 12 18  1  0
 13 18  1  0
 14 17  1  0
 14 19  2  0
  1 21  1  0
  1 22  1  0
  1 23  1  0
  2 24  1  0
  2 25  1  0
  2 26  1  0
  3 27  1  0
  4 28  1  0
  5 29  1  0
  6 30  1  0
  6 31  1  0
  7 32  1  0
  7 33  1  0
  8 34  1  0
M  END
