
     RDKit          3D

 33 36  0  0  0  0  0  0  0  0999 V2000
    5.3739   -0.2202   -0.0181 C   0  0  0  0  0  0  0  0  0  0  0  0
    2.7576   -1.3088   -0.0077 C   0  0  0  0  0  0  0  0  0  0  0  0
    1.4474   -1.8078    0.0025 C   0  0  0  0  0  0  0  0  0  0  0  0
   -1.1066    2.5590    0.1629 C   0  0  0  0  0  0  0  0  0  0  0  0
   -2.6001    2.7107   -0.2624 C   0  0  0  0  0  0  0  0  0  0  0  0
   -3.1829   -2.0087   -0.3840 C   0  0  0  0  0  0  0  0  0  0  0  0
   -1.7742   -2.2539    0.1830 C   0  0  0  0  0  0  0  0  0  0  0  0
    1.9444    0.9716    0.0205 C   0  0  0  0  0  0  0  0  0  0  0  0
    3.0109    0.0626    0.0014 C   0  0  0  0  0  0  0  0  0  0  0  0
   -0.6583    1.1381    0.0582 C   0  0  0  0  0  0  0  0  0  0  0  0
    0.6160    0.5038    0.0225 C   0  0  0  0  0  0  0  0  0  0  0  0
    0.3922   -0.8874    0.0137 C   0  0  0  0  0  0  0  0  0  0  0  0
   -1.5898    0.1336    0.0326 C   0  0  0  0  0  0  0  0  0  0  0  0
   -3.0046    0.3201    0.0656 C   0  0  0  0  0  0  0  0  0  0  0  0
   -3.4611    1.6103    0.2158 N   0  0  0  0  0  0  0  0  0  0  0  0
   -3.7982   -0.6905   -0.0633 N   0  0  0  0  0  0  0  0  0  0  0  0
   -0.9664   -1.0645    0.0419 N   0  0  0  0  0  0  0  0  0  0  0  0
    4.2493    0.6492   -0.0036 O   0  0  0  0  0  0  0  0  0  0  0  0
    5.3890   -0.8315   -0.9265 H   0  0  0  0  0  0  0  0  0  0  0  0
    6.2756    0.3998   -0.0199 H   0  0  0  0  0  0  0  0  0  0  0  0
    5.4019   -0.8449    0.8808 H   0  0  0  0  0  0  0  0  0  0  0  0
    3.5656   -2.0332   -0.0191 H   0  0  0  0  0  0  0  0  0  0  0  0
    1.2656   -2.8776    0.0022 H   0  0  0  0  0  0  0  0  0  0  0  0
   -0.4798    3.2150   -0.4505 H   0  0  0  0  0  0  0  0  0  0  0  0
   -1.0009    2.8773    1.2074 H   0  0  0  0  0  0  0  0  0  0  0  0
   -2.6597    2.7362   -1.3577 H   0  0  0  0  0  0  0  0  0  0  0  0
   -2.9919    3.6642    0.1070 H   0  0  0  0  0  0  0  0  0  0  0  0
   -3.1574   -2.1002   -1.4773 H   0  0  0  0  0  0  0  0  0  0  0  0
   -3.8521   -2.7960   -0.0195 H   0  0  0  0  0  0  0  0  0  0  0  0
   -1.8229   -2.4742    1.2552 H   0  0  0  0  0  0  0  0  0  0  0  0
   -1.2841   -3.0839   -0.3342 H   0  0  0  0  0  0  0  0  0  0  0  0
    2.1462    2.0385    0.0349 H   0  0  0  0  0  0  0  0  0  0  0  0
   -4.4445    1.6933   -0.0145 H   0  0  0  0  0  0  0  0  0  0  0  0
  1 18  1  0
  2  3  2  0
  2  9  1  0
  3 12  1  0
  4  5  1  0
  4 10  1  0
  5 15  1  0
  6  7  1  0
  6 16  1  0
  7 17  1  0
  8  9  2  0
  8 11  1  0
  9 18  1  0
 10 11  1  0
 10 13  2  0
 11 12  2  0
 12 17  1  0
 13 14  1  0
 13 17  1  0
 14 15  1  0
 14 16  2  0
  1 19  1  0
  1 20  1  0
  1 21  1  0
  2 22  1  0
  3 23  1  0
  4 24  1  0
  4 25  1  0
  5 26  1  0
  5 27  1  0
  6 28  1  0
  6 29  1  0
  7 30  1  0
  7 31  1  0
  8 32  1  0
 15 33  1  0
M  END
