
     RDKit          3D

 32 33  0  0  0  0  0  0  0  0999 V2000
    1.9762    0.8434   -1.3856 C   0  0  0  0  0  0  0  0  0  0  0  0
    1.3944   -0.1087    0.7587 C   0  0  0  0  0  0  0  0  0  0  0  0
   -4.6032   -1.3845   -0.2598 C   0  0  0  0  0  0  0  0  0  0  0  0
   -4.0388    0.9238    0.2111 C   0  0  0  0  0  0  0  0  0  0  0  0
    0.7585    0.4058   -1.9099 C   0  0  0  0  0  0  0  0  0  0  0  0
    0.1761   -0.5466    0.2347 C   0  0  0  0  0  0  0  0  0  0  0  0
   -3.3842   -1.5515   -0.9171 C   0  0  0  0  0  0  0  0  0  0  0  0
   -2.8179    0.7570   -0.4462 C   0  0  0  0  0  0  0  0  0  0  0  0
    3.6277    1.0549    0.5190 C   0  0  0  0  0  0  0  0  0  0  0  0
    4.8374    0.2645   -0.0030 C   0  0  0  0  0  0  0  0  0  0  0  0
    2.3044    0.5922   -0.0456 C   0  0  0  0  0  0  0  0  0  0  0  0
   -4.9193   -0.1513    0.3009 C   0  0  0  0  0  0  0  0  0  0  0  0
   -0.1472   -0.2710   -1.0950 C   0  0  0  0  0  0  0  0  0  0  0  0
   -2.4853   -0.4868   -0.9923 C   0  0  0  0  0  0  0  0  0  0  0  0
    4.8178   -1.1496    0.3739 N   0  0  0  0  0  0  0  0  0  0  0  0
   -6.1214   -0.0324    0.9333 O   0  0  0  0  0  0  0  0  0  0  0  0
   -1.3142   -0.7043   -1.6821 O   0  0  0  0  0  0  0  0  0  0  0  0
    2.6693    1.3775   -2.0319 H   0  0  0  0  0  0  0  0  0  0  0  0
    1.6299   -0.3260    1.7981 H   0  0  0  0  0  0  0  0  0  0  0  0
   -5.3050   -2.2104   -0.1894 H   0  0  0  0  0  0  0  0  0  0  0  0
   -4.2843    1.8914    0.6367 H   0  0  0  0  0  0  0  0  0  0  0  0
    0.5149    0.5960   -2.9516 H   0  0  0  0  0  0  0  0  0  0  0  0
   -0.5094   -1.1053    0.8660 H   0  0  0  0  0  0  0  0  0  0  0  0
   -3.1342   -2.5092   -1.3646 H   0  0  0  0  0  0  0  0  0  0  0  0
   -2.1357    1.5980   -0.5343 H   0  0  0  0  0  0  0  0  0  0  0  0
    3.7570    2.1159    0.2691 H   0  0  0  0  0  0  0  0  0  0  0  0
    3.6035    1.0092    1.6155 H   0  0  0  0  0  0  0  0  0  0  0  0
    4.9024    0.3355   -1.0944 H   0  0  0  0  0  0  0  0  0  0  0  0
    5.7526    0.7128    0.3991 H   0  0  0  0  0  0  0  0  0  0  0  0
    4.7021   -1.2326    1.3829 H   0  0  0  0  0  0  0  0  0  0  0  0
    3.9871   -1.5851   -0.0318 H   0  0  0  0  0  0  0  0  0  0  0  0
   -6.2112    0.8774    1.2610 H   0  0  0  0  0  0  0  0  0  0  0  0
  1  5  2  0
  1 11  1  0
  2  6  1  0
  2 11  2  0
  3  7  2  0
  3 12  1  0
  4  8  1  0
  4 12  2  0
  5 13  1  0
  6 13  2  0
  7 14  1  0
  8 14  2  0
  9 10  1  0
  9 11  1  0
 10 15  1  0
 12 16  1  0
 13 17  1  0
 14 17  1  0
  1 18  1  0
  2 19  1  0
  3 20  1  0
  4 21  1  0
  5 22  1  0
  6 23  1  0
  7 24  1  0
  8 25  1  0
  9 26  1  0
  9 27  1  0
 10 28  1  0
 10 29  1  0
 15 30  1  0
 15 31  1  0
 16 32  1  0
M  END
