
     RDKit          3D

 34 36  0  0  0  0  0  0  0  0999 V2000
   -2.3638    1.7290    0.0624 C   0  0  0  0  0  0  0  0  0  0  0  0
   -2.7416   -1.2183   -0.9602 C   0  0  0  0  0  0  0  0  0  0  0  0
   -1.3452   -1.1486   -0.3535 C   0  0  0  0  0  0  0  0  0  0  0  0
    4.1009   -0.9114   -1.3120 C   0  0  0  0  0  0  0  0  0  0  0  0
    3.7916    0.4516   -1.2849 C   0  0  0  0  0  0  0  0  0  0  0  0
   -3.6138   -0.3324   -0.0805 C   0  0  0  0  0  0  0  0  0  0  0  0
   -0.2768    0.1601    1.6580 C   0  0  0  0  0  0  0  0  0  0  0  0
    2.2023   -1.4210    0.1193 C   0  0  0  0  0  0  0  0  0  0  0  0
    1.0519    2.0293    0.4776 C   0  0  0  0  0  0  0  0  0  0  0  0
    0.8153    0.7023    0.7816 C   0  0  0  0  0  0  0  0  0  0  0  0
    3.3176   -1.8297   -0.6187 C   0  0  0  0  0  0  0  0  0  0  0  0
   -1.5384   -0.4141    0.9732 C   0  0  0  0  0  0  0  0  0  0  0  0
    1.8655   -0.0511    0.1548 C   0  0  0  0  0  0  0  0  0  0  0  0
    2.6722    0.8485   -0.5431 C   0  0  0  0  0  0  0  0  0  0  0  0
    3.7667   -3.6677   -0.6746 Br  0  0  0  0  0  0  0  0  0  0  0  0
    2.1511    2.1029   -0.3336 N   0  0  0  0  0  0  0  0  0  0  0  0
   -2.7010    0.4802    0.7405 N   0  0  0  0  0  0  0  0  0  0  0  0
   -1.7851    2.3772    0.7255 H   0  0  0  0  0  0  0  0  0  0  0  0
   -1.8110    1.5828   -0.8713 H   0  0  0  0  0  0  0  0  0  0  0  0
   -3.2756    2.2908   -0.1722 H   0  0  0  0  0  0  0  0  0  0  0  0
   -3.1173   -2.2468   -0.9747 H   0  0  0  0  0  0  0  0  0  0  0  0
   -2.7213   -0.8523   -1.9927 H   0  0  0  0  0  0  0  0  0  0  0  0
   -0.6954   -0.6026   -1.0448 H   0  0  0  0  0  0  0  0  0  0  0  0
   -0.9236   -2.1484   -0.2086 H   0  0  0  0  0  0  0  0  0  0  0  0
    4.9654   -1.2453   -1.8807 H   0  0  0  0  0  0  0  0  0  0  0  0
    4.4035    1.1710   -1.8194 H   0  0  0  0  0  0  0  0  0  0  0  0
   -4.3280    0.2601   -0.6634 H   0  0  0  0  0  0  0  0  0  0  0  0
   -4.2105   -0.9639    0.5898 H   0  0  0  0  0  0  0  0  0  0  0  0
    0.1652   -0.6428    2.2653 H   0  0  0  0  0  0  0  0  0  0  0  0
   -0.5754    0.9251    2.3871 H   0  0  0  0  0  0  0  0  0  0  0  0
    1.5993   -2.1447    0.6581 H   0  0  0  0  0  0  0  0  0  0  0  0
    0.5312    2.9303    0.7728 H   0  0  0  0  0  0  0  0  0  0  0  0
   -1.9177   -1.1563    1.6934 H   0  0  0  0  0  0  0  0  0  0  0  0
    2.5418    2.9561   -0.7085 H   0  0  0  0  0  0  0  0  0  0  0  0
  1 17  1  0
  2  3  1  0
  2  6  1  0
  3 12  1  0
  4  5  2  0
  4 11  1  0
  5 14  1  0
  6 17  1  0
  7 10  1  0
  7 12  1  0
  8 11  2  0
  8 13  1  0
  9 10  2  0
  9 16  1  0
 10 13  1  0
 11 15  1  0
 12 17  1  0
 13 14  2  0
 14 16  1  0
  1 18  1  0
  1 19  1  0
  1 20  1  0
  2 21  1  0
  2 22  1  0
  3 23  1  0
  3 24  1  0
  4 25  1  0
  5 26  1  0
  6 27  1  0
  6 28  1  0
  7 29  1  0
  7 30  1  0
  8 31  1  0
  9 32  1  0
 12 33  1  0
 16 34  1  0
M  END
