
     RDKit          3D

 34 36  0  0  0  0  0  0  0  0999 V2000
   -2.2944    1.7949    0.1746 C   0  0  0  0  0  0  0  0  0  0  0  0
   -2.7748   -1.0420   -1.0889 C   0  0  0  0  0  0  0  0  0  0  0  0
   -1.3850   -1.0784   -0.4643 C   0  0  0  0  0  0  0  0  0  0  0  0
    4.0870   -0.9954   -1.3284 C   0  0  0  0  0  0  0  0  0  0  0  0
    3.8320    0.3722   -1.2030 C   0  0  0  0  0  0  0  0  0  0  0  0
   -3.6230   -0.1957   -0.1487 C   0  0  0  0  0  0  0  0  0  0  0  0
   -0.2926    0.0183    1.6577 C   0  0  0  0  0  0  0  0  0  0  0  0
    2.1473   -1.5369    0.0330 C   0  0  0  0  0  0  0  0  0  0  0  0
    1.1257    1.9176    0.6404 C   0  0  0  0  0  0  0  0  0  0  0  0
    0.8330    0.5818    0.8389 C   0  0  0  0  0  0  0  0  0  0  0  0
    3.2565   -1.9253   -0.7175 C   0  0  0  0  0  0  0  0  0  0  0  0
   -1.5667   -0.4467    0.9158 C   0  0  0  0  0  0  0  0  0  0  0  0
    1.8627   -0.1630    0.1695 C   0  0  0  0  0  0  0  0  0  0  0  0
    2.7155    0.7550   -0.4473 C   0  0  0  0  0  0  0  0  0  0  0  0
    3.5271   -3.2311   -0.8525 F   0  0  0  0  0  0  0  0  0  0  0  0
    2.2394    2.0094   -0.1488 N   0  0  0  0  0  0  0  0  0  0  0  0
   -2.6896    0.5100    0.7450 N   0  0  0  0  0  0  0  0  0  0  0  0
   -1.6991    2.3631    0.8940 H   0  0  0  0  0  0  0  0  0  0  0  0
   -1.7356    1.7028   -0.7625 H   0  0  0  0  0  0  0  0  0  0  0  0
   -3.1800    2.4106   -0.0223 H   0  0  0  0  0  0  0  0  0  0  0  0
   -3.1908   -2.0498   -1.1910 H   0  0  0  0  0  0  0  0  0  0  0  0
   -2.7262   -0.5945   -2.0878 H   0  0  0  0  0  0  0  0  0  0  0  0
   -0.7048   -0.5050   -1.1022 H   0  0  0  0  0  0  0  0  0  0  0  0
   -1.0053   -2.1029   -0.3972 H   0  0  0  0  0  0  0  0  0  0  0  0
    4.9404   -1.3426   -1.9031 H   0  0  0  0  0  0  0  0  0  0  0  0
    4.4799    1.1051   -1.6726 H   0  0  0  0  0  0  0  0  0  0  0  0
   -4.3053    0.4706   -0.6885 H   0  0  0  0  0  0  0  0  0  0  0  0
   -4.2531   -0.8547    0.4619 H   0  0  0  0  0  0  0  0  0  0  0  0
    0.1077   -0.8479    2.2039 H   0  0  0  0  0  0  0  0  0  0  0  0
   -0.5697    0.7351    2.4422 H   0  0  0  0  0  0  0  0  0  0  0  0
    1.5228   -2.2920    0.4967 H   0  0  0  0  0  0  0  0  0  0  0  0
    0.6356    2.8135    0.9973 H   0  0  0  0  0  0  0  0  0  0  0  0
   -1.9849   -1.2288    1.5692 H   0  0  0  0  0  0  0  0  0  0  0  0
    2.6684    2.8728   -0.4518 H   0  0  0  0  0  0  0  0  0  0  0  0
  1 17  1  0
  2  3  1  0
  2  6  1  0
  3 12  1  0
  4  5  2  0
  4 11  1  0
  5 14  1  0
  6 17  1  0
  7 10  1  0
  7 12  1  0
  8 11  2  0
  8 13  1  0
  9 10  2  0
  9 16  1  0
 10 13  1  0
 11 15  1  0
 12 17  1  0
 13 14  2  0
 14 16  1  0
  1 18  1  0
  1 19  1  0
  1 20  1  0
  2 21  1  0
  2 22  1  0
  3 23  1  0
  3 24  1  0
  4 25  1  0
  5 26  1  0
  6 27  1  0
  6 28  1  0
  7 29  1  0
  7 30  1  0
  8 31  1  0
  9 32  1  0
 12 33  1  0
 16 34  1  0
M  END
