
     RDKit          3D

 36 38  0  0  0  0  0  0  0  0999 V2000
   -3.5415   -1.3241    0.0897 C   0  0  0  0  0  0  0  0  0  0  0  0
    3.9201   -0.4484   -0.4250 C   0  0  0  0  0  0  0  0  0  0  0  0
   -2.6506   -0.2357   -0.4843 C   0  0  0  0  0  0  0  0  0  0  0  0
    3.0304   -1.5573    0.1131 C   0  0  0  0  0  0  0  0  0  0  0  0
   -0.5568    1.8503   -0.8995 C   0  0  0  0  0  0  0  0  0  0  0  0
   -0.6305    2.7553    0.3355 C   0  0  0  0  0  0  0  0  0  0  0  0
    3.3639    0.8799    0.0367 C   0  0  0  0  0  0  0  0  0  0  0  0
   -3.0027   -2.6649   -0.3563 C   0  0  0  0  0  0  0  0  0  0  0  0
   -1.1846   -0.5671   -0.3348 C   0  0  0  0  0  0  0  0  0  0  0  0
   -0.1912    0.4205   -0.5322 C   0  0  0  0  0  0  0  0  0  0  0  0
    1.5658   -1.2296   -0.0387 C   0  0  0  0  0  0  0  0  0  0  0  0
    0.5675   -2.2028    0.1474 C   0  0  0  0  0  0  0  0  0  0  0  0
    1.1683    0.0819   -0.3494 C   0  0  0  0  0  0  0  0  0  0  0  0
   -0.7929   -1.8805   -0.0165 C   0  0  0  0  0  0  0  0  0  0  0  0
    1.0415   -3.9931    0.6342 Br  0  0  0  0  0  0  0  0  0  0  0  0
   -1.0259    4.1163   -0.0303 N   0  0  0  0  0  0  0  0  0  0  0  0
    2.0693    1.1081   -0.5186 O   0  0  0  0  0  0  0  0  0  0  0  0
   -1.7027   -2.8925    0.1834 O   0  0  0  0  0  0  0  0  0  0  0  0
   -3.5255   -1.2678    1.1855 H   0  0  0  0  0  0  0  0  0  0  0  0
   -4.5760   -1.1835   -0.2399 H   0  0  0  0  0  0  0  0  0  0  0  0
    3.9216   -0.4835   -1.5218 H   0  0  0  0  0  0  0  0  0  0  0  0
    4.9509   -0.5869   -0.0827 H   0  0  0  0  0  0  0  0  0  0  0  0
   -2.8694   -0.1127   -1.5523 H   0  0  0  0  0  0  0  0  0  0  0  0
   -2.8911    0.7038    0.0246 H   0  0  0  0  0  0  0  0  0  0  0  0
    3.2445   -1.7093    1.1783 H   0  0  0  0  0  0  0  0  0  0  0  0
    3.2828   -2.4780   -0.4242 H   0  0  0  0  0  0  0  0  0  0  0  0
   -1.5067    1.8740   -1.4462 H   0  0  0  0  0  0  0  0  0  0  0  0
    0.1768    2.2435   -1.6159 H   0  0  0  0  0  0  0  0  0  0  0  0
    0.3382    2.7911    0.8466 H   0  0  0  0  0  0  0  0  0  0  0  0
   -1.3579    2.3605    1.0533 H   0  0  0  0  0  0  0  0  0  0  0  0
    3.3095    0.9472    1.1304 H   0  0  0  0  0  0  0  0  0  0  0  0
    4.0123    1.6922   -0.3078 H   0  0  0  0  0  0  0  0  0  0  0  0
   -2.9658   -2.7522   -1.4494 H   0  0  0  0  0  0  0  0  0  0  0  0
   -3.6524   -3.4655    0.0126 H   0  0  0  0  0  0  0  0  0  0  0  0
   -0.3255    4.5100   -0.6587 H   0  0  0  0  0  0  0  0  0  0  0  0
   -1.0140    4.7006    0.8049 H   0  0  0  0  0  0  0  0  0  0  0  0
  1  3  1  0
  1  8  1  0
  2  4  1  0
  2  7  1  0
  3  9  1  0
  4 11  1  0
  5  6  1  0
  5 10  1  0
  6 16  1  0
  7 17  1  0
  8 18  1  0
  9 10  1  0
  9 14  2  0
 10 13  2  0
 11 12  2  0
 11 13  1  0
 12 14  1  0
 12 15  1  0
 13 17  1  0
 14 18  1  0
  1 19  1  0
  1 20  1  0
  2 21  1  0
  2 22  1  0
  3 23  1  0
  3 24  1  0
  4 25  1  0
  4 26  1  0
  5 27  1  0
  5 28  1  0
  6 29  1  0
  6 30  1  0
  7 31  1  0
  7 32  1  0
  8 33  1  0
  8 34  1  0
 16 35  1  0
 16 36  1  0
M  END
