
     RDKit          3D

 36 37  0  0  0  0  0  0  0  0999 V2000
   -1.2986    3.5333   -1.8019 C   0  0  0  0  0  0  0  0  0  0  0  0
    2.9429   -0.5918   -0.7490 C   0  0  0  0  0  0  0  0  0  0  0  0
    3.5031   -0.1916    0.6063 C   0  0  0  0  0  0  0  0  0  0  0  0
   -2.5951   -2.7896   -0.5056 C   0  0  0  0  0  0  0  0  0  0  0  0
   -1.8094   -1.6469   -0.6824 C   0  0  0  0  0  0  0  0  0  0  0  0
   -3.1798   -3.0538    0.7308 C   0  0  0  0  0  0  0  0  0  0  0  0
    1.4096   -0.6233   -0.7320 C   0  0  0  0  0  0  0  0  0  0  0  0
    2.9509    1.1659    1.0470 C   0  0  0  0  0  0  0  0  0  0  0  0
   -2.1910   -1.0303    1.6163 C   0  0  0  0  0  0  0  0  0  0  0  0
   -1.5997   -0.7438    0.3714 C   0  0  0  0  0  0  0  0  0  0  0  0
   -2.9741   -2.1735    1.7878 C   0  0  0  0  0  0  0  0  0  0  0  0
    0.7875    0.2030    0.4164 C   0  0  0  0  0  0  0  0  0  0  0  0
   -0.7286    0.5070    0.2317 C   0  0  0  0  0  0  0  0  0  0  0  0
   -1.0148    1.3403   -1.0180 C   0  0  0  0  0  0  0  0  0  0  0  0
   -3.6864   -2.4969    3.3208 Cl  0  0  0  0  0  0  0  0  0  0  0  0
    1.5760    1.4301    0.6138 N   0  0  0  0  0  0  0  0  0  0  0  0
   -1.1721    0.9098   -2.1538 O   0  0  0  0  0  0  0  0  0  0  0  0
   -1.0736    2.6679   -0.6889 O   0  0  0  0  0  0  0  0  0  0  0  0
   -2.2681    3.3202   -2.2627 H   0  0  0  0  0  0  0  0  0  0  0  0
   -1.3096    4.5628   -1.4334 H   0  0  0  0  0  0  0  0  0  0  0  0
   -0.4901    3.4365   -2.5333 H   0  0  0  0  0  0  0  0  0  0  0  0
    3.2802    0.1296   -1.5043 H   0  0  0  0  0  0  0  0  0  0  0  0
    3.3343   -1.5687   -1.0541 H   0  0  0  0  0  0  0  0  0  0  0  0
    3.2391   -0.9574    1.3466 H   0  0  0  0  0  0  0  0  0  0  0  0
    4.5975   -0.1521    0.5676 H   0  0  0  0  0  0  0  0  0  0  0  0
   -2.7491   -3.4730   -1.3374 H   0  0  0  0  0  0  0  0  0  0  0  0
   -1.3646   -1.4773   -1.6621 H   0  0  0  0  0  0  0  0  0  0  0  0
   -3.7895   -3.9434    0.8620 H   0  0  0  0  0  0  0  0  0  0  0  0
    1.0905   -1.6672   -0.6255 H   0  0  0  0  0  0  0  0  0  0  0  0
    1.0575   -0.2884   -1.7131 H   0  0  0  0  0  0  0  0  0  0  0  0
    3.0127    1.2324    2.1397 H   0  0  0  0  0  0  0  0  0  0  0  0
    3.5851    1.9653    0.6475 H   0  0  0  0  0  0  0  0  0  0  0  0
   -2.0424   -0.3610    2.4613 H   0  0  0  0  0  0  0  0  0  0  0  0
    0.8712   -0.3882    1.3405 H   0  0  0  0  0  0  0  0  0  0  0  0
   -1.0289    1.1521    1.0731 H   0  0  0  0  0  0  0  0  0  0  0  0
    1.1274    2.0621    1.2770 H   0  0  0  0  0  0  0  0  0  0  0  0
  1 18  1  0
  2  3  1  0
  2  7  1  0
  3  8  1  0
  4  5  2  0
  4  6  1  0
  5 10  1  0
  6 11  2  0
  7 12  1  0
  8 16  1  0
  9 10  2  0
  9 11  1  0
 10 13  1  0
 11 15  1  0
 12 13  1  0
 12 16  1  0
 13 14  1  0
 14 17  2  0
 14 18  1  0
  1 19  1  0
  1 20  1  0
  1 21  1  0
  2 22  1  0
  2 23  1  0
  3 24  1  0
  3 25  1  0
  4 26  1  0
  5 27  1  0
  6 28  1  0
  7 29  1  0
  7 30  1  0
  8 31  1  0
  8 32  1  0
  9 33  1  0
 12 34  1  0
 13 35  1  0
 16 36  1  0
M  END
