
     RDKit          3D

 34 36  0  0  0  0  0  0  0  0999 V2000
   -3.1679   -1.2578    0.8695 C   0  0  0  0  0  0  0  0  0  0  0  0
    3.3983    1.9829   -0.6714 C   0  0  0  0  0  0  0  0  0  0  0  0
    4.5973    1.2794   -0.5882 C   0  0  0  0  0  0  0  0  0  0  0  0
    2.1717    1.3133   -0.5924 C   0  0  0  0  0  0  0  0  0  0  0  0
    4.6077   -0.1088   -0.4240 C   0  0  0  0  0  0  0  0  0  0  0  0
   -4.1281    1.5370    0.0719 C   0  0  0  0  0  0  0  0  0  0  0  0
   -3.1869    1.1735   -1.0410 C   0  0  0  0  0  0  0  0  0  0  0  0
   -0.3642   -0.8062   -0.3372 C   0  0  0  0  0  0  0  0  0  0  0  0
   -0.9021   -0.3764    1.0389 C   0  0  0  0  0  0  0  0  0  0  0  0
    1.7291   -2.2911   -0.1642 C   0  0  0  0  0  0  0  0  0  0  0  0
    1.1124   -1.0634   -0.3091 C   0  0  0  0  0  0  0  0  0  0  0  0
   -2.7048    1.1630    0.3834 C   0  0  0  0  0  0  0  0  0  0  0  0
    2.1539   -0.0871   -0.4269 C   0  0  0  0  0  0  0  0  0  0  0  0
    3.3718   -0.7623   -0.3467 C   0  0  0  0  0  0  0  0  0  0  0  0
    3.0838   -2.0975   -0.1884 N   0  0  0  0  0  0  0  0  0  0  0  0
   -2.3454   -0.0755    1.0995 N   0  0  0  0  0  0  0  0  0  0  0  0
   -3.1488   -1.5937   -0.1717 H   0  0  0  0  0  0  0  0  0  0  0  0
   -2.8327   -2.0904    1.4989 H   0  0  0  0  0  0  0  0  0  0  0  0
   -4.2087   -1.0725    1.1526 H   0  0  0  0  0  0  0  0  0  0  0  0
    3.4125    3.0624   -0.7985 H   0  0  0  0  0  0  0  0  0  0  0  0
    5.5405    1.8171   -0.6514 H   0  0  0  0  0  0  0  0  0  0  0  0
    1.2428    1.8717   -0.6577 H   0  0  0  0  0  0  0  0  0  0  0  0
    5.5435   -0.6538   -0.3593 H   0  0  0  0  0  0  0  0  0  0  0  0
   -4.9323    0.8518    0.3035 H   0  0  0  0  0  0  0  0  0  0  0  0
   -4.4066    2.5794    0.1819 H   0  0  0  0  0  0  0  0  0  0  0  0
   -2.8304    1.9697   -1.6848 H   0  0  0  0  0  0  0  0  0  0  0  0
   -3.3520    0.2380   -1.5591 H   0  0  0  0  0  0  0  0  0  0  0  0
   -0.8737   -1.7162   -0.6762 H   0  0  0  0  0  0  0  0  0  0  0  0
   -0.5721   -0.0338   -1.0867 H   0  0  0  0  0  0  0  0  0  0  0  0
   -0.6745   -1.1567    1.7779 H   0  0  0  0  0  0  0  0  0  0  0  0
   -0.3482    0.5052    1.3889 H   0  0  0  0  0  0  0  0  0  0  0  0
    1.3177   -3.2848   -0.0460 H   0  0  0  0  0  0  0  0  0  0  0  0
   -2.0821    2.0094    0.6783 H   0  0  0  0  0  0  0  0  0  0  0  0
    3.7786   -2.8259   -0.1025 H   0  0  0  0  0  0  0  0  0  0  0  0
  1 16  1  0
  2  3  2  0
  2  4  1  0
  3  5  1  0
  4 13  2  0
  5 14  2  0
  6  7  1  0
  6 12  1  0
  7 12  1  0
  8  9  1  0
  8 11  1  0
  9 16  1  0
 10 11  2  0
 10 15  1  0
 11 13  1  0
 12 16  1  0
 13 14  1  0
 14 15  1  0
  1 17  1  0
  1 18  1  0
  1 19  1  0
  2 20  1  0
  3 21  1  0
  4 22  1  0
  5 23  1  0
  6 24  1  0
  6 25  1  0
  7 26  1  0
  7 27  1  0
  8 28  1  0
  8 29  1  0
  9 30  1  0
  9 31  1  0
 10 32  1  0
 12 33  1  0
 15 34  1  0
M  END
