
     RDKit          3D

 34 37  0  0  0  0  0  0  0  0999 V2000
    0.8786    2.9642    1.3810 C   0  0  0  0  0  0  0  0  0  0  0  0
   -2.7566   -0.1438   -1.2099 C   0  0  0  0  0  0  0  0  0  0  0  0
    1.9318    2.2370    0.8067 C   0  0  0  0  0  0  0  0  0  0  0  0
   -2.9158    0.7642    0.0038 C   0  0  0  0  0  0  0  0  0  0  0  0
   -0.3932    2.4083    1.4639 C   0  0  0  0  0  0  0  0  0  0  0  0
   -2.3047   -1.4678   -0.6071 C   0  0  0  0  0  0  0  0  0  0  0  0
    1.9911   -1.8541   -1.2284 C   0  0  0  0  0  0  0  0  0  0  0  0
    0.9849   -1.9498   -0.0586 C   0  0  0  0  0  0  0  0  0  0  0  0
    2.9242    0.2019   -0.2878 C   0  0  0  0  0  0  0  0  0  0  0  0
    1.7385    0.9403    0.2847 C   0  0  0  0  0  0  0  0  0  0  0  0
   -1.8357    0.3181    0.9929 C   0  0  0  0  0  0  0  0  0  0  0  0
   -0.5806    1.1286    0.9649 C   0  0  0  0  0  0  0  0  0  0  0  0
   -1.3238   -1.0592    0.4916 C   0  0  0  0  0  0  0  0  0  0  0  0
    0.4598    0.3925    0.3822 C   0  0  0  0  0  0  0  0  0  0  0  0
    2.6363   -0.5608   -1.4971 N   0  0  0  0  0  0  0  0  0  0  0  0
    0.0199   -0.8604   -0.0780 N   0  0  0  0  0  0  0  0  0  0  0  0
    1.0601    3.9647    1.7648 H   0  0  0  0  0  0  0  0  0  0  0  0
   -3.6876   -0.2433   -1.7754 H   0  0  0  0  0  0  0  0  0  0  0  0
   -1.9891    0.2529   -1.8846 H   0  0  0  0  0  0  0  0  0  0  0  0
    2.9159    2.6989    0.7609 H   0  0  0  0  0  0  0  0  0  0  0  0
   -3.9025    0.5864    0.4494 H   0  0  0  0  0  0  0  0  0  0  0  0
   -2.8612    1.8236   -0.2658 H   0  0  0  0  0  0  0  0  0  0  0  0
   -1.2117    2.9599    1.9136 H   0  0  0  0  0  0  0  0  0  0  0  0
   -3.1663   -1.9794   -0.1613 H   0  0  0  0  0  0  0  0  0  0  0  0
   -1.8656   -2.1304   -1.3593 H   0  0  0  0  0  0  0  0  0  0  0  0
    1.4771   -2.1490   -2.1512 H   0  0  0  0  0  0  0  0  0  0  0  0
    2.7715   -2.6061   -1.0576 H   0  0  0  0  0  0  0  0  0  0  0  0
    1.5102   -1.9854    0.9047 H   0  0  0  0  0  0  0  0  0  0  0  0
    0.4573   -2.9072   -0.1543 H   0  0  0  0  0  0  0  0  0  0  0  0
    3.3855   -0.4249    0.4855 H   0  0  0  0  0  0  0  0  0  0  0  0
    3.6840    0.9433   -0.5661 H   0  0  0  0  0  0  0  0  0  0  0  0
   -2.2295    0.2502    2.0130 H   0  0  0  0  0  0  0  0  0  0  0  0
   -1.2932   -1.7963    1.3035 H   0  0  0  0  0  0  0  0  0  0  0  0
    3.4907   -0.7169   -2.0245 H   0  0  0  0  0  0  0  0  0  0  0  0
  1  3  2  0
  1  5  1  0
  2  4  1  0
  2  6  1  0
  3 10  1  0
  4 11  1  0
  5 12  2  0
  6 13  1  0
  7  8  1  0
  7 15  1  0
  8 16  1  0
  9 10  1  0
  9 15  1  0
 10 14  2  0
 11 12  1  0
 11 13  1  0
 12 14  1  0
 13 16  1  0
 14 16  1  0
  1 17  1  0
  2 18  1  0
  2 19  1  0
  3 20  1  0
  4 21  1  0
  4 22  1  0
  5 23  1  0
  6 24  1  0
  6 25  1  0
  7 26  1  0
  7 27  1  0
  8 28  1  0
  8 29  1  0
  9 30  1  0
  9 31  1  0
 11 32  1  0
 13 33  1  0
 15 34  1  0
M  END
