
     RDKit          3D

 35 36  0  0  0  0  0  0  0  0999 V2000
    1.4833    2.0414   -0.9560 C   0  0  0  0  0  0  0  0  0  0  0  0
   -1.2981   -2.3357    1.1967 C   0  0  0  0  0  0  0  0  0  0  0  0
    4.0031   -0.3934    0.4444 C   0  0  0  0  0  0  0  0  0  0  0  0
    3.2349   -1.4914    0.7842 C   0  0  0  0  0  0  0  0  0  0  0  0
   -3.0399    0.7019   -0.5920 C   0  0  0  0  0  0  0  0  0  0  0  0
   -2.5217    0.8202    0.8370 C   0  0  0  0  0  0  0  0  0  0  0  0
    3.3837    0.7271   -0.0952 C   0  0  0  0  0  0  0  0  0  0  0  0
    1.8508   -1.4626    0.5893 C   0  0  0  0  0  0  0  0  0  0  0  0
   -1.9838    1.0853   -1.6111 C   0  0  0  0  0  0  0  0  0  0  0  0
   -1.0169    0.5568    0.9833 C   0  0  0  0  0  0  0  0  0  0  0  0
    1.9839    0.7834   -0.2898 C   0  0  0  0  0  0  0  0  0  0  0  0
    1.1741   -0.3378    0.0564 C   0  0  0  0  0  0  0  0  0  0  0  0
   -0.7976    0.1443   -1.5250 C   0  0  0  0  0  0  0  0  0  0  0  0
   -0.3843   -0.3636   -0.0995 C   0  0  0  0  0  0  0  0  0  0  0  0
   -0.9668   -1.7367   -0.0807 N   0  0  0  0  0  0  0  0  0  0  0  0
   -0.2136   -0.2021   -2.5575 O   0  0  0  0  0  0  0  0  0  0  0  0
    1.3953    1.8866   -2.0353 H   0  0  0  0  0  0  0  0  0  0  0  0
    2.1802    2.8730   -0.7977 H   0  0  0  0  0  0  0  0  0  0  0  0
    0.5305    2.3828   -0.5559 H   0  0  0  0  0  0  0  0  0  0  0  0
   -0.5142   -2.2358    1.9512 H   0  0  0  0  0  0  0  0  0  0  0  0
   -2.2235   -1.9206    1.6031 H   0  0  0  0  0  0  0  0  0  0  0  0
   -1.4810   -3.4058    1.0530 H   0  0  0  0  0  0  0  0  0  0  0  0
    5.0802   -0.4112    0.5823 H   0  0  0  0  0  0  0  0  0  0  0  0
    3.7067   -2.3807    1.1937 H   0  0  0  0  0  0  0  0  0  0  0  0
   -3.3658   -0.3300   -0.7732 H   0  0  0  0  0  0  0  0  0  0  0  0
   -3.9284    1.3322   -0.7126 H   0  0  0  0  0  0  0  0  0  0  0  0
   -3.0952    0.1459    1.4825 H   0  0  0  0  0  0  0  0  0  0  0  0
   -2.7301    1.8299    1.2137 H   0  0  0  0  0  0  0  0  0  0  0  0
    4.0090    1.5717   -0.3816 H   0  0  0  0  0  0  0  0  0  0  0  0
    1.3195   -2.3687    0.8592 H   0  0  0  0  0  0  0  0  0  0  0  0
   -2.4073    1.0153   -2.6189 H   0  0  0  0  0  0  0  0  0  0  0  0
   -1.6379    2.1119   -1.4580 H   0  0  0  0  0  0  0  0  0  0  0  0
   -0.8150    0.1739    1.9925 H   0  0  0  0  0  0  0  0  0  0  0  0
   -0.5282    1.5367    0.9784 H   0  0  0  0  0  0  0  0  0  0  0  0
   -0.3859   -2.3441   -0.6607 H   0  0  0  0  0  0  0  0  0  0  0  0
  1 11  1  0
  2 15  1  0
  3  4  2  0
  3  7  1  0
  4  8  1  0
  5  6  1  0
  5  9  1  0
  6 10  1  0
  7 11  2  0
  8 12  2  0
  9 13  1  0
 10 14  1  0
 11 12  1  0
 12 14  1  0
 13 14  1  0
 13 16  2  0
 14 15  1  0
  1 17  1  0
  1 18  1  0
  1 19  1  0
  2 20  1  0
  2 21  1  0
  2 22  1  0
  3 23  1  0
  4 24  1  0
  5 25  1  0
  5 26  1  0
  6 27  1  0
  6 28  1  0
  7 29  1  0
  8 30  1  0
  9 31  1  0
  9 32  1  0
 10 33  1  0
 10 34  1  0
 15 35  1  0
M  END
