
     RDKit          3D

 37 38  0  0  0  0  0  0  0  0999 V2000
   -4.0341    1.1255    0.0500 C   0  0  0  0  0  0  0  0  0  0  0  0
   -2.9383    0.0303   -1.9120 C   0  0  0  0  0  0  0  0  0  0  0  0
   -0.8590   -3.6213   -0.3141 C   0  0  0  0  0  0  0  0  0  0  0  0
    1.4495    0.6021   -0.6876 C   0  0  0  0  0  0  0  0  0  0  0  0
    2.4910    1.4789   -1.0199 C   0  0  0  0  0  0  0  0  0  0  0  0
   -1.8457   -0.0618    0.3947 C   0  0  0  0  0  0  0  0  0  0  0  0
    2.5389    0.0671    1.4262 C   0  0  0  0  0  0  0  0  0  0  0  0
    5.3237    2.1651    0.9502 C   0  0  0  0  0  0  0  0  0  0  0  0
   -3.1678   -0.0532   -0.4026 C   0  0  0  0  0  0  0  0  0  0  0  0
    1.4671   -0.1118    0.5328 C   0  0  0  0  0  0  0  0  0  0  0  0
   -0.8776   -1.2120    0.0541 C   0  0  0  0  0  0  0  0  0  0  0  0
    3.5249    1.6233   -0.1200 C   0  0  0  0  0  0  0  0  0  0  0  0
    3.5466    0.9403    1.0713 C   0  0  0  0  0  0  0  0  0  0  0  0
    0.3883   -1.0732    0.9273 C   0  0  0  0  0  0  0  0  0  0  0  0
   -1.5378   -2.5083    0.3406 N   0  0  0  0  0  0  0  0  0  0  0  0
    0.5296   -1.7304    1.9611 O   0  0  0  0  0  0  0  0  0  0  0  0
    4.6102    2.4272   -0.2777 O   0  0  0  0  0  0  0  0  0  0  0  0
    4.6456    1.2327    1.8177 O   0  0  0  0  0  0  0  0  0  0  0  0
   -4.2356    1.0730    1.1251 H   0  0  0  0  0  0  0  0  0  0  0  0
   -4.9988    1.1212   -0.4693 H   0  0  0  0  0  0  0  0  0  0  0  0
   -3.5425    2.0825   -0.1564 H   0  0  0  0  0  0  0  0  0  0  0  0
   -3.8900    0.1285   -2.4447 H   0  0  0  0  0  0  0  0  0  0  0  0
   -2.4471   -0.8710   -2.2926 H   0  0  0  0  0  0  0  0  0  0  0  0
   -2.3162    0.8934   -2.1715 H   0  0  0  0  0  0  0  0  0  0  0  0
    0.1862   -3.7114   -0.0008 H   0  0  0  0  0  0  0  0  0  0  0  0
   -1.3695   -4.5548   -0.0571 H   0  0  0  0  0  0  0  0  0  0  0  0
   -0.8934   -3.5161   -1.4033 H   0  0  0  0  0  0  0  0  0  0  0  0
    0.6391    0.4958   -1.4037 H   0  0  0  0  0  0  0  0  0  0  0  0
    2.4851    2.0309   -1.9529 H   0  0  0  0  0  0  0  0  0  0  0  0
   -2.0820   -0.0974    1.4690 H   0  0  0  0  0  0  0  0  0  0  0  0
   -1.3362    0.8992    0.2423 H   0  0  0  0  0  0  0  0  0  0  0  0
    2.5840   -0.4622    2.3738 H   0  0  0  0  0  0  0  0  0  0  0  0
    6.3125    1.7583    0.7017 H   0  0  0  0  0  0  0  0  0  0  0  0
    5.4585    3.1122    1.4875 H   0  0  0  0  0  0  0  0  0  0  0  0
   -3.7247   -0.9744   -0.1897 H   0  0  0  0  0  0  0  0  0  0  0  0
   -0.6030   -1.1869   -1.0044 H   0  0  0  0  0  0  0  0  0  0  0  0
   -1.4815   -2.6555    1.3547 H   0  0  0  0  0  0  0  0  0  0  0  0
  1  9  1  0
  2  9  1  0
  3 15  1  0
  4  5  2  0
  4 10  1  0
  5 12  1  0
  6  9  1  0
  6 11  1  0
  7 10  2  0
  7 13  1  0
  8 17  1  0
  8 18  1  0
 10 14  1  0
 11 14  1  0
 11 15  1  0
 12 13  2  0
 12 17  1  0
 13 18  1  0
 14 16  2  0
  1 19  1  0
  1 20  1  0
  1 21  1  0
  2 22  1  0
  2 23  1  0
  2 24  1  0
  3 25  1  0
  3 26  1  0
  3 27  1  0
  4 28  1  0
  5 29  1  0
  6 30  1  0
  6 31  1  0
  7 32  1  0
  8 33  1  0
  8 34  1  0
  9 35  1  0
 11 36  1  0
 15 37  1  0
M  END
