
     RDKit          3D

 36 37  0  0  0  0  0  0  0  0999 V2000
   -2.9610    1.5415   -0.2254 C   0  0  0  0  0  0  0  0  0  0  0  0
   -4.3795   -0.4024   -0.8850 C   0  0  0  0  0  0  0  0  0  0  0  0
   -3.4611   -0.2848    1.4349 C   0  0  0  0  0  0  0  0  0  0  0  0
    3.6588    1.9537   -1.2303 C   0  0  0  0  0  0  0  0  0  0  0  0
    4.7700    1.7798   -0.4090 C   0  0  0  0  0  0  0  0  0  0  0  0
    2.5801    1.0641   -1.1683 C   0  0  0  0  0  0  0  0  0  0  0  0
    4.8373    0.7161    0.4956 C   0  0  0  0  0  0  0  0  0  0  0  0
    0.3778   -1.3356   -0.5570 C   0  0  0  0  0  0  0  0  0  0  0  0
   -0.7196   -0.4597    0.0697 C   0  0  0  0  0  0  0  0  0  0  0  0
    2.3296   -1.8398    1.0394 C   0  0  0  0  0  0  0  0  0  0  0  0
    1.7215   -1.0843    0.0555 C   0  0  0  0  0  0  0  0  0  0  0  0
    2.6221   -0.0172   -0.2641 C   0  0  0  0  0  0  0  0  0  0  0  0
    3.7492   -0.1638    0.5446 C   0  0  0  0  0  0  0  0  0  0  0  0
   -3.1641    0.0287   -0.0410 C   0  0  0  0  0  0  0  0  0  0  0  0
    3.5454   -1.2786    1.3231 N   0  0  0  0  0  0  0  0  0  0  0  0
   -2.0190   -0.7508   -0.5474 N   0  0  0  0  0  0  0  0  0  0  0  0
   -2.6927    1.7840   -1.2601 H   0  0  0  0  0  0  0  0  0  0  0  0
   -2.1754    1.9335    0.4293 H   0  0  0  0  0  0  0  0  0  0  0  0
   -3.8791    2.0913    0.0130 H   0  0  0  0  0  0  0  0  0  0  0  0
   -5.2843    0.1358   -0.5793 H   0  0  0  0  0  0  0  0  0  0  0  0
   -4.5843   -1.4744   -0.7777 H   0  0  0  0  0  0  0  0  0  0  0  0
   -4.2193   -0.1976   -1.9504 H   0  0  0  0  0  0  0  0  0  0  0  0
   -3.5764   -1.3625    1.5988 H   0  0  0  0  0  0  0  0  0  0  0  0
   -4.3915    0.1973    1.7573 H   0  0  0  0  0  0  0  0  0  0  0  0
   -2.6669    0.0741    2.0980 H   0  0  0  0  0  0  0  0  0  0  0  0
    3.6264    2.7871   -1.9276 H   0  0  0  0  0  0  0  0  0  0  0  0
    5.5988    2.4812   -0.4721 H   0  0  0  0  0  0  0  0  0  0  0  0
    1.7184    1.2085   -1.8135 H   0  0  0  0  0  0  0  0  0  0  0  0
    5.7048    0.5831    1.1333 H   0  0  0  0  0  0  0  0  0  0  0  0
    0.1198   -2.3959   -0.4357 H   0  0  0  0  0  0  0  0  0  0  0  0
    0.4323   -1.1507   -1.6376 H   0  0  0  0  0  0  0  0  0  0  0  0
   -0.7515   -0.6501    1.1482 H   0  0  0  0  0  0  0  0  0  0  0  0
   -0.4523    0.5921   -0.0769 H   0  0  0  0  0  0  0  0  0  0  0  0
    2.0001   -2.7295    1.5593 H   0  0  0  0  0  0  0  0  0  0  0  0
    4.2041   -1.6279    2.0048 H   0  0  0  0  0  0  0  0  0  0  0  0
   -2.2186   -1.7464   -0.4463 H   0  0  0  0  0  0  0  0  0  0  0  0
  1 14  1  0
  2 14  1  0
  3 14  1  0
  4  5  2  0
  4  6  1  0
  5  7  1  0
  6 12  2  0
  7 13  2  0
  8  9  1  0
  8 11  1  0
  9 16  1  0
 10 11  2  0
 10 15  1  0
 11 12  1  0
 12 13  1  0
 13 15  1  0
 14 16  1  0
  1 17  1  0
  1 18  1  0
  1 19  1  0
  2 20  1  0
  2 21  1  0
  2 22  1  0
  3 23  1  0
  3 24  1  0
  3 25  1  0
  4 26  1  0
  5 27  1  0
  6 28  1  0
  7 29  1  0
  8 30  1  0
  8 31  1  0
  9 32  1  0
  9 33  1  0
 10 34  1  0
 15 35  1  0
 16 36  1  0
M  END
