
     RDKit          3D

 41 41  0  0  0  0  0  0  0  0999 V2000
   -1.9341    3.4341   -1.6960 C   0  0  0  0  0  0  0  0  0  0  0  0
   -0.0803   -3.5724   -0.2644 C   0  0  0  0  0  0  0  0  0  0  0  0
    4.2617    0.2500    0.9313 C   0  0  0  0  0  0  0  0  0  0  0  0
    3.2962   -0.3892   -0.0686 C   0  0  0  0  0  0  0  0  0  0  0  0
   -3.5029    0.2975    0.5333 C   0  0  0  0  0  0  0  0  0  0  0  0
    5.6590    0.4677    0.3770 C   0  0  0  0  0  0  0  0  0  0  0  0
   -4.0506   -0.8958    1.3302 C   0  0  0  0  0  0  0  0  0  0  0  0
    2.9423    0.5418   -1.2283 C   0  0  0  0  0  0  0  0  0  0  0  0
   -1.4636   -1.1037   -0.1546 C   0  0  0  0  0  0  0  0  0  0  0  0
   -0.4254    1.0484   -1.5876 C   0  0  0  0  0  0  0  0  0  0  0  0
   -2.1767    0.1099   -0.1878 C   0  0  0  0  0  0  0  0  0  0  0  0
   -1.6449    1.1911   -0.9208 C   0  0  0  0  0  0  0  0  0  0  0  0
   -0.2446   -1.2530   -0.8282 C   0  0  0  0  0  0  0  0  0  0  0  0
    0.2819   -0.1609   -1.5378 C   0  0  0  0  0  0  0  0  0  0  0  0
    6.4386    0.9789    1.3682 F   0  0  0  0  0  0  0  0  0  0  0  0
   -5.3265   -0.5882    1.9779 N   0  0  0  0  0  0  0  0  0  0  0  0
   -2.3960    2.3394   -0.9144 O   0  0  0  0  0  0  0  0  0  0  0  0
    0.5015   -2.4044   -0.8268 O   0  0  0  0  0  0  0  0  0  0  0  0
    1.8349   -0.2628   -2.4356 S   0  0  0  0  0  0  0  0  0  0  0  0
   -0.9744    3.8065   -1.3232 H   0  0  0  0  0  0  0  0  0  0  0  0
   -2.6640    4.2437   -1.6004 H   0  0  0  0  0  0  0  0  0  0  0  0
   -1.8724    3.1657   -2.7558 H   0  0  0  0  0  0  0  0  0  0  0  0
    0.6104   -4.4040   -0.4336 H   0  0  0  0  0  0  0  0  0  0  0  0
   -0.2094   -3.4635    0.8172 H   0  0  0  0  0  0  0  0  0  0  0  0
   -1.0272   -3.8217   -0.7548 H   0  0  0  0  0  0  0  0  0  0  0  0
    3.8597    1.2041    1.2924 H   0  0  0  0  0  0  0  0  0  0  0  0
    4.3384   -0.3949    1.8153 H   0  0  0  0  0  0  0  0  0  0  0  0
    3.7328   -1.3221   -0.4464 H   0  0  0  0  0  0  0  0  0  0  0  0
    2.3870   -0.6592    0.4807 H   0  0  0  0  0  0  0  0  0  0  0  0
   -4.2531    0.5797   -0.2178 H   0  0  0  0  0  0  0  0  0  0  0  0
   -3.3898    1.1448    1.2230 H   0  0  0  0  0  0  0  0  0  0  0  0
    6.1108   -0.4711    0.0440 H   0  0  0  0  0  0  0  0  0  0  0  0
    5.6686    1.1827   -0.4492 H   0  0  0  0  0  0  0  0  0  0  0  0
   -3.3367   -1.1960    2.1053 H   0  0  0  0  0  0  0  0  0  0  0  0
   -4.2006   -1.7578    0.6708 H   0  0  0  0  0  0  0  0  0  0  0  0
    2.4879    1.4688   -0.8630 H   0  0  0  0  0  0  0  0  0  0  0  0
    3.8461    0.8190   -1.7789 H   0  0  0  0  0  0  0  0  0  0  0  0
   -1.8673   -1.9364    0.4093 H   0  0  0  0  0  0  0  0  0  0  0  0
   -0.0021    1.8673   -2.1599 H   0  0  0  0  0  0  0  0  0  0  0  0
   -6.0050   -0.3016    1.2722 H   0  0  0  0  0  0  0  0  0  0  0  0
   -5.2101    0.2177    2.5922 H   0  0  0  0  0  0  0  0  0  0  0  0
  1 17  1  0
  2 18  1  0
  3  4  1  0
  3  6  1  0
  4  8  1  0
  5  7  1  0
  5 11  1  0
  6 15  1  0
  7 16  1  0
  8 19  1  0
  9 11  2  0
  9 13  1  0
 10 12  2  0
 10 14  1  0
 11 12  1  0
 12 17  1  0
 13 14  2  0
 13 18  1  0
 14 19  1  0
  1 20  1  0
  1 21  1  0
  1 22  1  0
  2 23  1  0
  2 24  1  0
  2 25  1  0
  3 26  1  0
  3 27  1  0
  4 28  1  0
  4 29  1  0
  5 30  1  0
  5 31  1  0
  6 32  1  0
  6 33  1  0
  7 34  1  0
  7 35  1  0
  8 36  1  0
  8 37  1  0
  9 38  1  0
 10 39  1  0
 16 40  1  0
 16 41  1  0
M  END
