
     RDKit          3D

 40 41  0  0  0  0  0  0  0  0999 V2000
    2.0144   -3.0270    1.2676 C   0  0  0  0  0  0  0  0  0  0  0  0
   -0.9680    1.9896   -2.7440 C   0  0  0  0  0  0  0  0  0  0  0  0
   -4.0495   -0.7844    1.3376 C   0  0  0  0  0  0  0  0  0  0  0  0
   -4.4574   -0.1074    0.0442 C   0  0  0  0  0  0  0  0  0  0  0  0
    3.5665    0.4255   -0.5728 C   0  0  0  0  0  0  0  0  0  0  0  0
    4.2439    0.8353    0.7445 C   0  0  0  0  0  0  0  0  0  0  0  0
   -2.6373   -1.2832    1.0399 C   0  0  0  0  0  0  0  0  0  0  0  0
   -3.1649    0.5747   -0.3958 C   0  0  0  0  0  0  0  0  0  0  0  0
    1.1842    1.1524   -0.9285 C   0  0  0  0  0  0  0  0  0  0  0  0
    0.1688   -1.1111    0.2863 C   0  0  0  0  0  0  0  0  0  0  0  0
    2.0772    0.1906   -0.4466 C   0  0  0  0  0  0  0  0  0  0  0  0
   -0.7614   -0.1448   -0.1613 C   0  0  0  0  0  0  0  0  0  0  0  0
    1.5600   -0.9613    0.1566 C   0  0  0  0  0  0  0  0  0  0  0  0
   -0.2045    0.9731   -0.8183 C   0  0  0  0  0  0  0  0  0  0  0  0
    3.7867    2.1295    1.2588 N   0  0  0  0  0  0  0  0  0  0  0  0
   -2.1190   -0.3546    0.0294 N   0  0  0  0  0  0  0  0  0  0  0  0
    2.4887   -1.8772    0.5797 O   0  0  0  0  0  0  0  0  0  0  0  0
   -1.0028    1.9793   -1.3153 O   0  0  0  0  0  0  0  0  0  0  0  0
    1.3972   -3.6507    0.6128 H   0  0  0  0  0  0  0  0  0  0  0  0
    1.4741   -2.7494    2.1786 H   0  0  0  0  0  0  0  0  0  0  0  0
    2.8846   -3.6196    1.5658 H   0  0  0  0  0  0  0  0  0  0  0  0
   -0.0424    2.4462   -3.1089 H   0  0  0  0  0  0  0  0  0  0  0  0
   -1.8043    2.6032   -3.0925 H   0  0  0  0  0  0  0  0  0  0  0  0
   -1.0902    0.9836   -3.1618 H   0  0  0  0  0  0  0  0  0  0  0  0
   -4.0237   -0.0499    2.1518 H   0  0  0  0  0  0  0  0  0  0  0  0
   -4.7259   -1.5926    1.6292 H   0  0  0  0  0  0  0  0  0  0  0  0
   -5.2814    0.5996    0.1735 H   0  0  0  0  0  0  0  0  0  0  0  0
   -4.7597   -0.8596   -0.6945 H   0  0  0  0  0  0  0  0  0  0  0  0
    3.7593    1.1903   -1.3367 H   0  0  0  0  0  0  0  0  0  0  0  0
    4.0396   -0.4877   -0.9560 H   0  0  0  0  0  0  0  0  0  0  0  0
    5.3248    0.9002    0.5780 H   0  0  0  0  0  0  0  0  0  0  0  0
    4.0878    0.0769    1.5189 H   0  0  0  0  0  0  0  0  0  0  0  0
   -2.0482   -1.2849    1.9639 H   0  0  0  0  0  0  0  0  0  0  0  0
   -2.6678   -2.2981    0.6277 H   0  0  0  0  0  0  0  0  0  0  0  0
   -3.0621    1.5377    0.1177 H   0  0  0  0  0  0  0  0  0  0  0  0
   -3.1804    0.7223   -1.4795 H   0  0  0  0  0  0  0  0  0  0  0  0
    1.5656    2.0615   -1.3866 H   0  0  0  0  0  0  0  0  0  0  0  0
   -0.2185   -2.0162    0.7389 H   0  0  0  0  0  0  0  0  0  0  0  0
    2.7904    2.0573    1.4743 H   0  0  0  0  0  0  0  0  0  0  0  0
    3.8555    2.8309    0.5234 H   0  0  0  0  0  0  0  0  0  0  0  0
  1 17  1  0
  2 18  1  0
  3  4  1  0
  3  7  1  0
  4  8  1  0
  5  6  1  0
  5 11  1  0
  6 15  1  0
  7 16  1  0
  8 16  1  0
  9 11  2  0
  9 14  1  0
 10 12  1  0
 10 13  2  0
 11 13  1  0
 12 14  2  0
 12 16  1  0
 13 17  1  0
 14 18  1  0
  1 19  1  0
  1 20  1  0
  1 21  1  0
  2 22  1  0
  2 23  1  0
  2 24  1  0
  3 25  1  0
  3 26  1  0
  4 27  1  0
  4 28  1  0
  5 29  1  0
  5 30  1  0
  6 31  1  0
  6 32  1  0
  7 33  1  0
  7 34  1  0
  8 35  1  0
  8 36  1  0
  9 37  1  0
 10 38  1  0
 15 39  1  0
 15 40  1  0
M  END
