
     RDKit          3D

 41 41  0  0  0  0  0  0  0  0999 V2000
   -1.2308    2.0829   -3.6900 C   0  0  0  0  0  0  0  0  0  0  0  0
    0.2191   -4.1103    1.5801 C   0  0  0  0  0  0  0  0  0  0  0  0
   -4.4391    0.3956    1.6636 C   0  0  0  0  0  0  0  0  0  0  0  0
   -1.3472    2.6006   -2.2670 C   0  0  0  0  0  0  0  0  0  0  0  0
   -0.0603   -2.8497    2.3798 C   0  0  0  0  0  0  0  0  0  0  0  0
   -2.9444    0.5511    1.4531 C   0  0  0  0  0  0  0  0  0  0  0  0
    2.9943    0.0830   -0.7256 C   0  0  0  0  0  0  0  0  0  0  0  0
    3.7000    1.0549    0.2269 C   0  0  0  0  0  0  0  0  0  0  0  0
    0.6104    0.8492   -1.0680 C   0  0  0  0  0  0  0  0  0  0  0  0
    1.0413   -0.9627    0.4913 C   0  0  0  0  0  0  0  0  0  0  0  0
    1.5154   -0.0162   -0.4318 C   0  0  0  0  0  0  0  0  0  0  0  0
   -0.7568    0.7730   -0.7995 C   0  0  0  0  0  0  0  0  0  0  0  0
   -0.3212   -1.0593    0.7766 C   0  0  0  0  0  0  0  0  0  0  0  0
   -1.2084   -0.1798    0.1310 C   0  0  0  0  0  0  0  0  0  0  0  0
    5.1314    1.1550   -0.0548 N   0  0  0  0  0  0  0  0  0  0  0  0
   -1.7225    1.5560   -1.3739 O   0  0  0  0  0  0  0  0  0  0  0  0
   -0.8884   -1.9526    1.6459 O   0  0  0  0  0  0  0  0  0  0  0  0
   -2.5624   -0.2986    0.3672 O   0  0  0  0  0  0  0  0  0  0  0  0
   -2.1639    1.5998   -3.9989 H   0  0  0  0  0  0  0  0  0  0  0  0
   -1.0138    2.9016   -4.3822 H   0  0  0  0  0  0  0  0  0  0  0  0
   -0.4407    1.3318   -3.7810 H   0  0  0  0  0  0  0  0  0  0  0  0
   -0.7189   -4.5805    1.2666 H   0  0  0  0  0  0  0  0  0  0  0  0
    0.7833   -3.8910    0.6689 H   0  0  0  0  0  0  0  0  0  0  0  0
    0.7894   -4.8275    2.1772 H   0  0  0  0  0  0  0  0  0  0  0  0
   -4.6914   -0.6469    1.8833 H   0  0  0  0  0  0  0  0  0  0  0  0
   -4.9859    0.6721    0.7562 H   0  0  0  0  0  0  0  0  0  0  0  0
   -4.7842    1.0245    2.4891 H   0  0  0  0  0  0  0  0  0  0  0  0
   -0.4478    3.1321   -1.9377 H   0  0  0  0  0  0  0  0  0  0  0  0
   -2.1568    3.3388   -2.2352 H   0  0  0  0  0  0  0  0  0  0  0  0
   -0.6276   -3.1297    3.2748 H   0  0  0  0  0  0  0  0  0  0  0  0
    0.8548   -2.3721    2.7459 H   0  0  0  0  0  0  0  0  0  0  0  0
   -2.7199    1.5994    1.2221 H   0  0  0  0  0  0  0  0  0  0  0  0
   -2.4176    0.2647    2.3712 H   0  0  0  0  0  0  0  0  0  0  0  0
    3.1367    0.4003   -1.7667 H   0  0  0  0  0  0  0  0  0  0  0  0
    3.4458   -0.9151   -0.6529 H   0  0  0  0  0  0  0  0  0  0  0  0
    3.2567    2.0543    0.1485 H   0  0  0  0  0  0  0  0  0  0  0  0
    3.5693    0.7315    1.2659 H   0  0  0  0  0  0  0  0  0  0  0  0
    1.0040    1.5657   -1.7812 H   0  0  0  0  0  0  0  0  0  0  0  0
    1.7625   -1.6215    0.9631 H   0  0  0  0  0  0  0  0  0  0  0  0
    5.2734    1.4617   -1.0166 H   0  0  0  0  0  0  0  0  0  0  0  0
    5.5621    0.2335    0.0145 H   0  0  0  0  0  0  0  0  0  0  0  0
  1  4  1  0
  2  5  1  0
  3  6  1  0
  4 16  1  0
  5 17  1  0
  6 18  1  0
  7  8  1  0
  7 11  1  0
  8 15  1  0
  9 11  2  0
  9 12  1  0
 10 11  1  0
 10 13  2  0
 12 14  2  0
 12 16  1  0
 13 14  1  0
 13 17  1  0
 14 18  1  0
  1 19  1  0
  1 20  1  0
  1 21  1  0
  2 22  1  0
  2 23  1  0
  2 24  1  0
  3 25  1  0
  3 26  1  0
  3 27  1  0
  4 28  1  0
  4 29  1  0
  5 30  1  0
  5 31  1  0
  6 32  1  0
  6 33  1  0
  7 34  1  0
  7 35  1  0
  8 36  1  0
  8 37  1  0
  9 38  1  0
 10 39  1  0
 15 40  1  0
 15 41  1  0
M  END
