
     RDKit          3D

 32 35  0  0  0  0  0  0  0  0999 V2000
    4.4127    0.9415    0.6267 C   0  0  0  0  0  0  0  0  0  0  0  0
   -3.4118    1.2614    1.6179 C   0  0  0  0  0  0  0  0  0  0  0  0
   -4.5447    0.8501    0.9145 C   0  0  0  0  0  0  0  0  0  0  0  0
   -2.1609    0.7361    1.2942 C   0  0  0  0  0  0  0  0  0  0  0  0
   -4.4316   -0.0888   -0.1145 C   0  0  0  0  0  0  0  0  0  0  0  0
   -0.2672    1.0331   -1.8673 C   0  0  0  0  0  0  0  0  0  0  0  0
    0.8557   -2.5458    0.1166 C   0  0  0  0  0  0  0  0  0  0  0  0
    3.6117   -0.3008    0.7320 C   0  0  0  0  0  0  0  0  0  0  0  0
   -2.0499   -0.2011    0.2587 C   0  0  0  0  0  0  0  0  0  0  0  0
    0.1801    0.1055   -0.8513 C   0  0  0  0  0  0  0  0  0  0  0  0
   -3.1828   -0.6204   -0.4451 C   0  0  0  0  0  0  0  0  0  0  0  0
    0.7642    1.7692   -2.3898 C   0  0  0  0  0  0  0  0  0  0  0  0
    2.0365   -1.8055    0.6154 C   0  0  0  0  0  0  0  0  0  0  0  0
   -0.7086   -0.7431   -0.0485 C   0  0  0  0  0  0  0  0  0  0  0  0
    1.5557    0.2186   -0.6926 C   0  0  0  0  0  0  0  0  0  0  0  0
   -3.0931   -1.7487   -1.7479 Cl  0  0  0  0  0  0  0  0  0  0  0  0
    0.5247    3.2160   -3.8767 I   0  0  0  0  0  0  0  0  0  0  0  0
   -0.4034   -1.8914    0.4401 N   0  0  0  0  0  0  0  0  0  0  0  0
    3.9617   -1.3301    1.4780 N   0  0  0  0  0  0  0  0  0  0  0  0
    2.9772   -2.2692    1.4072 N   0  0  0  0  0  0  0  0  0  0  0  0
    2.3654   -0.5418    0.1606 N   0  0  0  0  0  0  0  0  0  0  0  0
    2.2550    1.3971   -1.6945 S   0  0  0  0  0  0  0  0  0  0  0  0
    4.8809    1.0261   -0.3579 H   0  0  0  0  0  0  0  0  0  0  0  0
    3.8065    1.8291    0.8290 H   0  0  0  0  0  0  0  0  0  0  0  0
    5.2199    0.9301    1.3674 H   0  0  0  0  0  0  0  0  0  0  0  0
   -3.5063    1.9851    2.4248 H   0  0  0  0  0  0  0  0  0  0  0  0
   -5.5205    1.2573    1.1715 H   0  0  0  0  0  0  0  0  0  0  0  0
   -1.2832    1.0463    1.8564 H   0  0  0  0  0  0  0  0  0  0  0  0
   -5.3231   -0.4018   -0.6532 H   0  0  0  0  0  0  0  0  0  0  0  0
   -1.2981    1.1464   -2.1838 H   0  0  0  0  0  0  0  0  0  0  0  0
    0.9342   -2.7193   -0.9640 H   0  0  0  0  0  0  0  0  0  0  0  0
    0.8430   -3.5411    0.5762 H   0  0  0  0  0  0  0  0  0  0  0  0
  1  8  1  0
  2  3  2  0
  2  4  1  0
  3  5  1  0
  4  9  2  0
  5 11  2  0
  6 10  1  0
  6 12  2  0
  7 13  1  0
  7 18  1  0
  8 19  2  0
  8 21  1  0
  9 11  1  0
  9 14  1  0
 10 14  1  0
 10 15  2  0
 11 16  1  0
 12 17  1  0
 12 22  1  0
 13 20  2  0
 13 21  1  0
 14 18  2  0
 15 21  1  0
 15 22  1  0
 19 20  1  0
  1 23  1  0
  1 24  1  0
  1 25  1  0
  2 26  1  0
  3 27  1  0
  4 28  1  0
  5 29  1  0
  6 30  1  0
  7 31  1  0
  7 32  1  0
M  END
