
     RDKit          3D

 32 34  0  0  0  0  0  0  0  0999 V2000
   -4.3210   -0.4200   -0.5459 C   0  0  0  0  0  0  0  0  0  0  0  0
   -3.3573    0.1320   -1.3898 C   0  0  0  0  0  0  0  0  0  0  0  0
   -3.9319   -1.1271    0.5912 C   0  0  0  0  0  0  0  0  0  0  0  0
   -2.0002   -0.0150   -1.0941 C   0  0  0  0  0  0  0  0  0  0  0  0
   -2.5767   -1.2761    0.8908 C   0  0  0  0  0  0  0  0  0  0  0  0
    2.4473    2.3872   -0.5120 C   0  0  0  0  0  0  0  0  0  0  0  0
    2.8419    1.0843   -0.8311 C   0  0  0  0  0  0  0  0  0  0  0  0
    0.4139    1.5378    0.4289 C   0  0  0  0  0  0  0  0  0  0  0  0
    1.5982   -2.2482    1.2490 C   0  0  0  0  0  0  0  0  0  0  0  0
   -1.6052   -0.7080    0.0575 C   0  0  0  0  0  0  0  0  0  0  0  0
    1.2573    2.6200    0.1739 C   0  0  0  0  0  0  0  0  0  0  0  0
    0.7926    0.2254    0.0866 C   0  0  0  0  0  0  0  0  0  0  0  0
    2.0387   -0.0170   -0.5151 C   0  0  0  0  0  0  0  0  0  0  0  0
    2.3571   -2.2646   -0.0523 C   0  0  0  0  0  0  0  0  0  0  0  0
   -0.1568   -0.8866    0.3998 C   0  0  0  0  0  0  0  0  0  0  0  0
    0.8150    3.9271    0.3960 N   0  0  0  0  0  0  0  0  0  0  0  0
    0.1834   -2.0023    0.9609 N   0  0  0  0  0  0  0  0  0  0  0  0
    2.5485   -1.2807   -0.8654 N   0  0  0  0  0  0  0  0  0  0  0  0
    2.8845   -3.4492   -0.3923 O   0  0  0  0  0  0  0  0  0  0  0  0
   -5.3767   -0.3087   -0.7808 H   0  0  0  0  0  0  0  0  0  0  0  0
   -3.6624    0.6698   -2.2840 H   0  0  0  0  0  0  0  0  0  0  0  0
   -4.6821   -1.5692    1.2419 H   0  0  0  0  0  0  0  0  0  0  0  0
   -1.2653    0.4013   -1.7782 H   0  0  0  0  0  0  0  0  0  0  0  0
   -2.2794   -1.8372    1.7739 H   0  0  0  0  0  0  0  0  0  0  0  0
    3.0882    3.2167   -0.7997 H   0  0  0  0  0  0  0  0  0  0  0  0
    3.7898    0.9233   -1.3399 H   0  0  0  0  0  0  0  0  0  0  0  0
   -0.5469    1.7174    0.9057 H   0  0  0  0  0  0  0  0  0  0  0  0
    2.0168   -1.5033    1.9343 H   0  0  0  0  0  0  0  0  0  0  0  0
    1.6934   -3.2246    1.7355 H   0  0  0  0  0  0  0  0  0  0  0  0
    1.5612    4.6116    0.4749 H   0  0  0  0  0  0  0  0  0  0  0  0
    0.1313    4.0181    1.1416 H   0  0  0  0  0  0  0  0  0  0  0  0
    3.3026   -3.3343   -1.2615 H   0  0  0  0  0  0  0  0  0  0  0  0
  1  2  2  0
  1  3  1  0
  2  4  1  0
  3  5  2  0
  4 10  2  0
  5 10  1  0
  6  7  2  0
  6 11  1  0
  7 13  1  0
  8 11  2  0
  8 12  1  0
  9 14  1  0
  9 17  1  0
 10 15  1  0
 11 16  1  0
 12 13  2  0
 12 15  1  0
 13 18  1  0
 14 18  2  0
 14 19  1  0
 15 17  2  0
  1 20  1  0
  2 21  1  0
  3 22  1  0
  4 23  1  0
  5 24  1  0
  6 25  1  0
  7 26  1  0
  8 27  1  0
  9 28  1  0
  9 29  1  0
 16 30  1  0
 16 31  1  0
 19 32  1  0
M  END
