
     RDKit          3D

 30 31  0  0  0  0  0  0  0  0999 V2000
   -4.9264    0.6589    0.9311 C   0  0  0  0  0  0  0  0  0  0  0  0
    4.8958    1.1143    0.4973 C   0  0  0  0  0  0  0  0  0  0  0  0
   -4.2509   -0.2757    1.7132 C   0  0  0  0  0  0  0  0  0  0  0  0
   -4.4128    1.0278   -0.3106 C   0  0  0  0  0  0  0  0  0  0  0  0
    4.3815    0.1230    1.3306 C   0  0  0  0  0  0  0  0  0  0  0  0
    4.2424    1.4309   -0.6920 C   0  0  0  0  0  0  0  0  0  0  0  0
   -3.0634   -0.8466    1.2523 C   0  0  0  0  0  0  0  0  0  0  0  0
   -3.2255    0.4584   -0.7739 C   0  0  0  0  0  0  0  0  0  0  0  0
    3.2159   -0.5566    0.9730 C   0  0  0  0  0  0  0  0  0  0  0  0
    3.0766    0.7529   -1.0520 C   0  0  0  0  0  0  0  0  0  0  0  0
   -1.2590   -1.1046   -0.4981 C   0  0  0  0  0  0  0  0  0  0  0  0
    1.2953   -0.9850   -0.6126 C   0  0  0  0  0  0  0  0  0  0  0  0
   -2.5436   -0.4912   -0.0002 C   0  0  0  0  0  0  0  0  0  0  0  0
    2.5566   -0.2540   -0.2266 C   0  0  0  0  0  0  0  0  0  0  0  0
    0.0053   -0.3473   -0.1138 C   0  0  0  0  0  0  0  0  0  0  0  0
   -0.0140    0.6936    0.5414 O   0  0  0  0  0  0  0  0  0  0  0  0
   -5.8473    1.1075    1.2936 H   0  0  0  0  0  0  0  0  0  0  0  0
    5.7996    1.6472    0.7798 H   0  0  0  0  0  0  0  0  0  0  0  0
   -4.6446   -0.5541    2.6872 H   0  0  0  0  0  0  0  0  0  0  0  0
   -4.9326    1.7661   -0.9153 H   0  0  0  0  0  0  0  0  0  0  0  0
    4.8839   -0.1154    2.2644 H   0  0  0  0  0  0  0  0  0  0  0  0
    4.6361    2.2129   -1.3358 H   0  0  0  0  0  0  0  0  0  0  0  0
   -2.5434   -1.5642    1.8823 H   0  0  0  0  0  0  0  0  0  0  0  0
   -2.8328    0.7686   -1.7394 H   0  0  0  0  0  0  0  0  0  0  0  0
    2.8223   -1.3179    1.6424 H   0  0  0  0  0  0  0  0  0  0  0  0
    2.5731    1.0230   -1.9771 H   0  0  0  0  0  0  0  0  0  0  0  0
   -1.2931   -1.1774   -1.5919 H   0  0  0  0  0  0  0  0  0  0  0  0
   -1.1743   -2.1276   -0.1119 H   0  0  0  0  0  0  0  0  0  0  0  0
    1.3402   -2.0105   -0.2264 H   0  0  0  0  0  0  0  0  0  0  0  0
    1.2391   -1.0570   -1.7055 H   0  0  0  0  0  0  0  0  0  0  0  0
  1  3  2  0
  1  4  1  0
  2  5  2  0
  2  6  1  0
  3  7  1  0
  4  8  2  0
  5  9  1  0
  6 10  2  0
  7 13  2  0
  8 13  1  0
  9 14  2  0
 10 14  1  0
 11 13  1  0
 11 15  1  0
 12 14  1  0
 12 15  1  0
 15 16  2  0
  1 17  1  0
  2 18  1  0
  3 19  1  0
  4 20  1  0
  5 21  1  0
  6 22  1  0
  7 23  1  0
  8 24  1  0
  9 25  1  0
 10 26  1  0
 11 27  1  0
 11 28  1  0
 12 29  1  0
 12 30  1  0
M  END
