
     RDKit          3D

 35 36  0  0  0  0  0  0  0  0999 V2000
    4.7385   -0.0865    2.1357 C   0  0  0  0  0  0  0  0  0  0  0  0
   -4.6177    2.8116   -0.3254 C   0  0  0  0  0  0  0  0  0  0  0  0
   -0.1056   -3.0691   -0.0429 C   0  0  0  0  0  0  0  0  0  0  0  0
   -1.4536   -2.7692    0.1151 C   0  0  0  0  0  0  0  0  0  0  0  0
    0.7998   -2.0606   -0.3606 C   0  0  0  0  0  0  0  0  0  0  0  0
   -3.2810   -1.1725    0.1300 C   0  0  0  0  0  0  0  0  0  0  0  0
   -3.7738    0.1263   -0.0128 C   0  0  0  0  0  0  0  0  0  0  0  0
    1.3684    0.3708   -0.8820 C   0  0  0  0  0  0  0  0  0  0  0  0
    2.8368    0.0049   -1.1504 C   0  0  0  0  0  0  0  0  0  0  0  0
   -1.5429    0.8861   -0.4950 C   0  0  0  0  0  0  0  0  0  0  0  0
    4.0330    0.3777    0.9040 C   0  0  0  0  0  0  0  0  0  0  0  0
   -1.9164   -1.4567   -0.0378 C   0  0  0  0  0  0  0  0  0  0  0  0
    0.3778   -0.7310   -0.5287 C   0  0  0  0  0  0  0  0  0  0  0  0
   -2.9048    1.1630   -0.3258 C   0  0  0  0  0  0  0  0  0  0  0  0
   -1.0075   -0.4178   -0.3600 C   0  0  0  0  0  0  0  0  0  0  0  0
    3.5195   -0.4356    0.0623 N   0  0  0  0  0  0  0  0  0  0  0  0
    4.0038    1.7174    0.8060 O   0  0  0  0  0  0  0  0  0  0  0  0
   -3.2457    2.4774   -0.4941 O   0  0  0  0  0  0  0  0  0  0  0  0
    5.7648    0.2902    2.1346 H   0  0  0  0  0  0  0  0  0  0  0  0
    4.2125    0.2840    3.0197 H   0  0  0  0  0  0  0  0  0  0  0  0
    4.7631   -1.1792    2.1707 H   0  0  0  0  0  0  0  0  0  0  0  0
   -4.7216    3.8887   -0.4886 H   0  0  0  0  0  0  0  0  0  0  0  0
   -4.9544    2.5955    0.6940 H   0  0  0  0  0  0  0  0  0  0  0  0
   -5.2423    2.3010   -1.0657 H   0  0  0  0  0  0  0  0  0  0  0  0
    0.2443   -4.0901    0.0847 H   0  0  0  0  0  0  0  0  0  0  0  0
   -2.1420   -3.5735    0.3640 H   0  0  0  0  0  0  0  0  0  0  0  0
    1.8461   -2.3373   -0.4653 H   0  0  0  0  0  0  0  0  0  0  0  0
   -3.9798   -1.9694    0.3771 H   0  0  0  0  0  0  0  0  0  0  0  0
   -4.8367    0.2879    0.1282 H   0  0  0  0  0  0  0  0  0  0  0  0
    1.0016    0.8501   -1.7991 H   0  0  0  0  0  0  0  0  0  0  0  0
    1.3370    1.1179   -0.0792 H   0  0  0  0  0  0  0  0  0  0  0  0
    3.3571    0.8562   -1.6055 H   0  0  0  0  0  0  0  0  0  0  0  0
    2.8964   -0.7971   -1.8956 H   0  0  0  0  0  0  0  0  0  0  0  0
   -0.8941    1.7240   -0.7371 H   0  0  0  0  0  0  0  0  0  0  0  0
    3.5193    2.0148    0.0258 H   0  0  0  0  0  0  0  0  0  0  0  0
  1 11  1  0
  2 18  1  0
  3  4  2  0
  3  5  1  0
  4 12  1  0
  5 13  2  0
  6  7  1  0
  6 12  2  0
  7 14  2  0
  8  9  1  0
  8 13  1  0
  9 16  1  0
 10 14  1  0
 10 15  2  0
 11 16  2  3
 11 17  1  0
 12 15  1  0
 13 15  1  0
 14 18  1  0
  1 19  1  0
  1 20  1  0
  1 21  1  0
  2 22  1  0
  2 23  1  0
  2 24  1  0
  3 25  1  0
  4 26  1  0
  5 27  1  0
  6 28  1  0
  7 29  1  0
  8 30  1  0
  8 31  1  0
  9 32  1  0
  9 33  1  0
 10 34  1  0
 17 35  1  0
M  END
