
     RDKit          3D

 37 39  0  0  0  0  0  0  0  0999 V2000
   -1.5169    2.6827    2.0737 C   0  0  0  0  0  0  0  0  0  0  0  0
    2.3963    0.1832    0.5027 C   0  0  0  0  0  0  0  0  0  0  0  0
    2.0883    1.4660   -1.5192 C   0  0  0  0  0  0  0  0  0  0  0  0
    3.5180    0.9547    0.8168 C   0  0  0  0  0  0  0  0  0  0  0  0
    3.2102    2.2353   -1.2057 C   0  0  0  0  0  0  0  0  0  0  0  0
   -1.7516   -2.6566    0.3168 C   0  0  0  0  0  0  0  0  0  0  0  0
   -2.6589   -1.4347    0.2712 C   0  0  0  0  0  0  0  0  0  0  0  0
    0.4492   -1.8841   -0.7130 C   0  0  0  0  0  0  0  0  0  0  0  0
    1.6682    0.4221   -0.6731 C   0  0  0  0  0  0  0  0  0  0  0  0
    3.9157    1.9711   -0.0405 C   0  0  0  0  0  0  0  0  0  0  0  0
   -0.9164   -2.5599   -0.9634 C   0  0  0  0  0  0  0  0  0  0  0  0
    0.4269   -0.3768   -1.0509 C   0  0  0  0  0  0  0  0  0  0  0  0
   -2.1392   -0.6177   -0.9119 C   0  0  0  0  0  0  0  0  0  0  0  0
   -0.9141    0.2999   -0.6611 C   0  0  0  0  0  0  0  0  0  0  0  0
   -0.9118    0.8474    0.7525 C   0  0  0  0  0  0  0  0  0  0  0  0
    4.9903    2.7108    0.2638 F   0  0  0  0  0  0  0  0  0  0  0  0
   -1.7434   -1.7041   -1.8412 N   0  0  0  0  0  0  0  0  0  0  0  0
   -0.4921    0.2521    1.7368 O   0  0  0  0  0  0  0  0  0  0  0  0
   -1.4892    2.0824    0.7782 O   0  0  0  0  0  0  0  0  0  0  0  0
   -0.5012    2.8024    2.4637 H   0  0  0  0  0  0  0  0  0  0  0  0
   -2.1285    2.0863    2.7579 H   0  0  0  0  0  0  0  0  0  0  0  0
   -1.9697    3.6734    1.9783 H   0  0  0  0  0  0  0  0  0  0  0  0
    2.0914   -0.5889    1.2050 H   0  0  0  0  0  0  0  0  0  0  0  0
    1.5424    1.6842   -2.4354 H   0  0  0  0  0  0  0  0  0  0  0  0
    4.0764    0.7708    1.7289 H   0  0  0  0  0  0  0  0  0  0  0  0
    3.5350    3.0363   -1.8615 H   0  0  0  0  0  0  0  0  0  0  0  0
   -1.1433   -2.6724    1.2265 H   0  0  0  0  0  0  0  0  0  0  0  0
   -2.3646   -3.5657    0.3129 H   0  0  0  0  0  0  0  0  0  0  0  0
   -2.6976   -0.9011    1.2232 H   0  0  0  0  0  0  0  0  0  0  0  0
   -3.6861   -1.7653    0.0648 H   0  0  0  0  0  0  0  0  0  0  0  0
    0.7711   -2.0681    0.3166 H   0  0  0  0  0  0  0  0  0  0  0  0
    1.2038   -2.3604   -1.3538 H   0  0  0  0  0  0  0  0  0  0  0  0
   -0.7612   -3.5528   -1.3986 H   0  0  0  0  0  0  0  0  0  0  0  0
    0.4402   -0.3692   -2.1547 H   0  0  0  0  0  0  0  0  0  0  0  0
   -2.9524   -0.0209   -1.3406 H   0  0  0  0  0  0  0  0  0  0  0  0
   -1.0070    1.1652   -1.3355 H   0  0  0  0  0  0  0  0  0  0  0  0
   -2.5783   -2.2276   -2.1137 H   0  0  0  0  0  0  0  0  0  0  0  0
  1 19  1  0
  2  4  2  0
  2  9  1  0
  3  5  1  0
  3  9  2  0
  4 10  1  0
  5 10  2  0
  6  7  1  0
  6 11  1  0
  7 13  1  0
  8 11  1  0
  8 12  1  0
  9 12  1  0
 10 16  1  0
 11 17  1  0
 12 14  1  0
 13 14  1  0
 13 17  1  0
 14 15  1  0
 15 18  2  0
 15 19  1  0
  1 20  1  0
  1 21  1  0
  1 22  1  0
  2 23  1  0
  3 24  1  0
  4 25  1  0
  5 26  1  0
  6 27  1  0
  6 28  1  0
  7 29  1  0
  7 30  1  0
  8 31  1  0
  8 32  1  0
 11 33  1  0
 12 34  1  0
 13 35  1  0
 14 36  1  0
 17 37  1  0
M  END
