
     RDKit          3D

 38 40  0  0  0  0  0  0  0  0999 V2000
   -3.9378   -1.2532   -0.0724 C   0  0  0  0  0  0  0  0  0  0  0  0
    4.9201   -1.1074    2.3897 C   0  0  0  0  0  0  0  0  0  0  0  0
   -3.4578    1.7341    0.6148 C   0  0  0  0  0  0  0  0  0  0  0  0
   -2.3314    1.3641   -0.3419 C   0  0  0  0  0  0  0  0  0  0  0  0
    4.1056    0.0481   -0.0669 C   0  0  0  0  0  0  0  0  0  0  0  0
    3.6602    0.6017   -1.2750 C   0  0  0  0  0  0  0  0  0  0  0  0
   -3.6204    0.5293    1.5305 C   0  0  0  0  0  0  0  0  0  0  0  0
   -1.1390   -0.8335   -0.9441 C   0  0  0  0  0  0  0  0  0  0  0  0
    1.8900   -0.7993    0.4118 C   0  0  0  0  0  0  0  0  0  0  0  0
    0.3053    0.4715   -2.6283 C   0  0  0  0  0  0  0  0  0  0  0  0
    0.1369   -0.2230   -1.4456 C   0  0  0  0  0  0  0  0  0  0  0  0
   -1.8207    0.0070    0.1527 C   0  0  0  0  0  0  0  0  0  0  0  0
    3.2358   -0.6465    0.7728 C   0  0  0  0  0  0  0  0  0  0  0  0
    1.4139   -0.2519   -0.7975 C   0  0  0  0  0  0  0  0  0  0  0  0
    2.3127    0.4352   -1.6114 C   0  0  0  0  0  0  0  0  0  0  0  0
    1.6140    0.8622   -2.7156 N   0  0  0  0  0  0  0  0  0  0  0  0
   -2.9910   -0.6037    0.8341 N   0  0  0  0  0  0  0  0  0  0  0  0
    3.5671   -1.2240    1.9700 O   0  0  0  0  0  0  0  0  0  0  0  0
   -4.8063   -1.6191    0.4873 H   0  0  0  0  0  0  0  0  0  0  0  0
   -4.3013   -0.5913   -0.8659 H   0  0  0  0  0  0  0  0  0  0  0  0
   -3.4862   -2.1364   -0.5360 H   0  0  0  0  0  0  0  0  0  0  0  0
    5.5968   -1.5992    1.6831 H   0  0  0  0  0  0  0  0  0  0  0  0
    5.1980   -0.0589    2.5403 H   0  0  0  0  0  0  0  0  0  0  0  0
    5.0167   -1.6182    3.3526 H   0  0  0  0  0  0  0  0  0  0  0  0
   -4.3778    1.9258    0.0511 H   0  0  0  0  0  0  0  0  0  0  0  0
   -3.2193    2.6368    1.1865 H   0  0  0  0  0  0  0  0  0  0  0  0
   -2.7230    1.3022   -1.3643 H   0  0  0  0  0  0  0  0  0  0  0  0
   -1.5401    2.1213   -0.3322 H   0  0  0  0  0  0  0  0  0  0  0  0
    5.1521    0.1814    0.1874 H   0  0  0  0  0  0  0  0  0  0  0  0
    4.3442    1.1398   -1.9230 H   0  0  0  0  0  0  0  0  0  0  0  0
   -3.0770    0.7067    2.4672 H   0  0  0  0  0  0  0  0  0  0  0  0
   -4.6658    0.3501    1.8052 H   0  0  0  0  0  0  0  0  0  0  0  0
   -0.9146   -1.8332   -0.5501 H   0  0  0  0  0  0  0  0  0  0  0  0
   -1.8177   -0.9802   -1.7940 H   0  0  0  0  0  0  0  0  0  0  0  0
    1.2149   -1.3411    1.0683 H   0  0  0  0  0  0  0  0  0  0  0  0
   -0.3965    0.7196   -3.4134 H   0  0  0  0  0  0  0  0  0  0  0  0
   -1.0762    0.1968    0.9396 H   0  0  0  0  0  0  0  0  0  0  0  0
    2.0157    1.3867   -3.4800 H   0  0  0  0  0  0  0  0  0  0  0  0
  1 17  1  0
  2 18  1  0
  3  4  1  0
  3  7  1  0
  4 12  1  0
  5  6  2  0
  5 13  1  0
  6 15  1  0
  7 17  1  0
  8 11  1  0
  8 12  1  0
  9 13  2  0
  9 14  1  0
 10 11  2  0
 10 16  1  0
 11 14  1  0
 12 17  1  0
 13 18  1  0
 14 15  2  0
 15 16  1  0
  1 19  1  0
  1 20  1  0
  1 21  1  0
  2 22  1  0
  2 23  1  0
  2 24  1  0
  3 25  1  0
  3 26  1  0
  4 27  1  0
  4 28  1  0
  5 29  1  0
  6 30  1  0
  7 31  1  0
  7 32  1  0
  8 33  1  0
  8 34  1  0
  9 35  1  0
 10 36  1  0
 12 37  1  0
 16 38  1  0
M  END
