
     RDKit          3D

 39 41  0  0  0  0  0  0  0  0999 V2000
   -2.2255    1.3454    0.5102 C   0  0  0  0  0  0  0  0  0  0  0  0
   -2.7192    1.8735   -1.8579 C   0  0  0  0  0  0  0  0  0  0  0  0
   -1.6004   -0.6429   -2.6341 C   0  0  0  0  0  0  0  0  0  0  0  0
   -0.5428   -2.3555   -0.1580 C   0  0  0  0  0  0  0  0  0  0  0  0
   -1.8425   -1.5696   -0.4209 C   0  0  0  0  0  0  0  0  0  0  0  0
    1.7573    0.0346   -0.2390 C   0  0  0  0  0  0  0  0  0  0  0  0
    2.7888    0.4282    2.4003 C   0  0  0  0  0  0  0  0  0  0  0  0
    0.2479   -2.1542    2.2782 C   0  0  0  0  0  0  0  0  0  0  0  0
    4.2363    2.5229   -0.0270 C   0  0  0  0  0  0  0  0  0  0  0  0
   -2.6115    0.7222   -0.8421 C   0  0  0  0  0  0  0  0  0  0  0  0
    0.2883   -1.7775    0.9493 C   0  0  0  0  0  0  0  0  0  0  0  0
    1.2724   -0.7405    0.8397 C   0  0  0  0  0  0  0  0  0  0  0  0
    1.7960   -0.5246    2.1229 C   0  0  0  0  0  0  0  0  0  0  0  0
    2.7366    0.9688    0.0442 C   0  0  0  0  0  0  0  0  0  0  0  0
    3.2301    1.1559    1.3115 C   0  0  0  0  0  0  0  0  0  0  0  0
    1.1509   -1.3961    2.9714 N   0  0  0  0  0  0  0  0  0  0  0  0
   -1.6287   -0.3281   -1.2038 N   0  0  0  0  0  0  0  0  0  0  0  0
    3.3197    1.7957   -0.8678 O   0  0  0  0  0  0  0  0  0  0  0  0
    4.1856    2.1266    1.3579 O   0  0  0  0  0  0  0  0  0  0  0  0
   -1.2228    1.7881    0.4667 H   0  0  0  0  0  0  0  0  0  0  0  0
   -2.2357    0.6185    1.3274 H   0  0  0  0  0  0  0  0  0  0  0  0
   -2.9278    2.1409    0.7859 H   0  0  0  0  0  0  0  0  0  0  0  0
   -3.4057    2.6466   -1.4916 H   0  0  0  0  0  0  0  0  0  0  0  0
   -3.1204    1.5285   -2.8161 H   0  0  0  0  0  0  0  0  0  0  0  0
   -1.7461    2.3460   -2.0362 H   0  0  0  0  0  0  0  0  0  0  0  0
   -2.5868   -0.9413   -3.0052 H   0  0  0  0  0  0  0  0  0  0  0  0
   -1.2456    0.2130   -3.2190 H   0  0  0  0  0  0  0  0  0  0  0  0
   -0.8979   -1.4543   -2.8519 H   0  0  0  0  0  0  0  0  0  0  0  0
    0.0612   -2.4469   -1.0689 H   0  0  0  0  0  0  0  0  0  0  0  0
   -0.8166   -3.3829    0.1188 H   0  0  0  0  0  0  0  0  0  0  0  0
   -2.3084   -1.3615    0.5484 H   0  0  0  0  0  0  0  0  0  0  0  0
   -2.5566   -2.2164   -0.9477 H   0  0  0  0  0  0  0  0  0  0  0  0
    1.3708   -0.0887   -1.2436 H   0  0  0  0  0  0  0  0  0  0  0  0
    3.1844    0.5878    3.3938 H   0  0  0  0  0  0  0  0  0  0  0  0
   -0.3522   -2.8967    2.7887 H   0  0  0  0  0  0  0  0  0  0  0  0
    4.0025    3.5913   -0.0951 H   0  0  0  0  0  0  0  0  0  0  0  0
    5.2555    2.3630   -0.3991 H   0  0  0  0  0  0  0  0  0  0  0  0
   -3.6123    0.2756   -0.7566 H   0  0  0  0  0  0  0  0  0  0  0  0
    1.3212   -1.4564    3.9665 H   0  0  0  0  0  0  0  0  0  0  0  0
  1 10  1  0
  2 10  1  0
  3 17  1  0
  4  5  1  0
  4 11  1  0
  5 17  1  0
  6 12  2  0
  6 14  1  0
  7 13  2  0
  7 15  1  0
  8 11  2  0
  8 16  1  0
  9 18  1  0
  9 19  1  0
 10 17  1  0
 11 12  1  0
 12 13  1  0
 13 16  1  0
 14 15  2  0
 14 18  1  0
 15 19  1  0
  1 20  1  0
  1 21  1  0
  1 22  1  0
  2 23  1  0
  2 24  1  0
  2 25  1  0
  3 26  1  0
  3 27  1  0
  3 28  1  0
  4 29  1  0
  4 30  1  0
  5 31  1  0
  5 32  1  0
  6 33  1  0
  7 34  1  0
  8 35  1  0
  9 36  1  0
  9 37  1  0
 10 38  1  0
 16 39  1  0
M  END
