
     RDKit          3D

 38 40  0  0  0  0  0  0  0  0999 V2000
   -0.4090   -1.0064   -2.4239 C   0  0  0  0  0  0  0  0  0  0  0  0
    0.5973   -2.5723   -0.0545 C   0  0  0  0  0  0  0  0  0  0  0  0
   -3.3081    1.5210    0.5764 C   0  0  0  0  0  0  0  0  0  0  0  0
    2.0235    2.1641   -0.2692 C   0  0  0  0  0  0  0  0  0  0  0  0
    3.2534    1.8396    0.2952 C   0  0  0  0  0  0  0  0  0  0  0  0
   -0.7049   -1.0689    1.5016 C   0  0  0  0  0  0  0  0  0  0  0  0
   -2.0708   -0.3733    1.4152 C   0  0  0  0  0  0  0  0  0  0  0  0
   -0.3206    1.6373   -0.9657 C   0  0  0  0  0  0  0  0  0  0  0  0
    2.4380   -0.3885    0.7622 C   0  0  0  0  0  0  0  0  0  0  0  0
   -0.9527   -0.8070   -0.9992 C   0  0  0  0  0  0  0  0  0  0  0  0
    0.9848    1.2176   -0.3232 C   0  0  0  0  0  0  0  0  0  0  0  0
    3.4498    0.5693    0.8105 C   0  0  0  0  0  0  0  0  0  0  0  0
    1.1911   -0.0897    0.1773 C   0  0  0  0  0  0  0  0  0  0  0  0
   -1.4692    0.6304   -0.7591 C   0  0  0  0  0  0  0  0  0  0  0  0
    0.0558   -1.1373    0.1394 C   0  0  0  0  0  0  0  0  0  0  0  0
   -2.0181    0.8379    0.6035 N   0  0  0  0  0  0  0  0  0  0  0  0
    4.6640    0.2919    1.3679 O   0  0  0  0  0  0  0  0  0  0  0  0
   -1.1249   -0.6303   -3.1629 H   0  0  0  0  0  0  0  0  0  0  0  0
   -0.2596   -2.0702   -2.6358 H   0  0  0  0  0  0  0  0  0  0  0  0
    0.5462   -0.5012   -2.5917 H   0  0  0  0  0  0  0  0  0  0  0  0
    1.1290   -2.9342    0.8326 H   0  0  0  0  0  0  0  0  0  0  0  0
    1.2913   -2.6355   -0.9001 H   0  0  0  0  0  0  0  0  0  0  0  0
   -0.2223   -3.2772   -0.2372 H   0  0  0  0  0  0  0  0  0  0  0  0
   -3.2303    2.4738    0.0410 H   0  0  0  0  0  0  0  0  0  0  0  0
   -4.0824    0.9142    0.0938 H   0  0  0  0  0  0  0  0  0  0  0  0
   -3.6409    1.7599    1.5926 H   0  0  0  0  0  0  0  0  0  0  0  0
    1.8714    3.1656   -0.6655 H   0  0  0  0  0  0  0  0  0  0  0  0
    4.0495    2.5763    0.3389 H   0  0  0  0  0  0  0  0  0  0  0  0
   -0.0968   -0.5655    2.2652 H   0  0  0  0  0  0  0  0  0  0  0  0
   -0.8853   -2.0804    1.8891 H   0  0  0  0  0  0  0  0  0  0  0  0
   -2.3876   -0.1272    2.4366 H   0  0  0  0  0  0  0  0  0  0  0  0
   -2.8196   -1.0742    1.0231 H   0  0  0  0  0  0  0  0  0  0  0  0
   -0.1410    1.7596   -2.0418 H   0  0  0  0  0  0  0  0  0  0  0  0
   -0.6156    2.6254   -0.5882 H   0  0  0  0  0  0  0  0  0  0  0  0
    2.6193   -1.3672    1.1925 H   0  0  0  0  0  0  0  0  0  0  0  0
   -1.8073   -1.4957   -0.9272 H   0  0  0  0  0  0  0  0  0  0  0  0
   -2.2470    0.8395   -1.5063 H   0  0  0  0  0  0  0  0  0  0  0  0
    4.6496   -0.6212    1.6969 H   0  0  0  0  0  0  0  0  0  0  0  0
  1 10  1  0
  2 15  1  0
  3 16  1  0
  4  5  2  0
  4 11  1  0
  5 12  1  0
  6  7  1  0
  6 15  1  0
  7 16  1  0
  8 11  1  0
  8 14  1  0
  9 12  2  0
  9 13  1  0
 10 14  1  0
 10 15  1  0
 11 13  2  0
 12 17  1  0
 13 15  1  0
 14 16  1  0
  1 18  1  0
  1 19  1  0
  1 20  1  0
  2 21  1  0
  2 22  1  0
  2 23  1  0
  3 24  1  0
  3 25  1  0
  3 26  1  0
  4 27  1  0
  5 28  1  0
  6 29  1  0
  6 30  1  0
  7 31  1  0
  7 32  1  0
  8 33  1  0
  8 34  1  0
  9 35  1  0
 10 36  1  0
 14 37  1  0
 17 38  1  0
M  END
