
     RDKit          3D

 38 39  0  0  0  0  0  0  0  0999 V2000
    4.7763   -0.3116   -1.2954 C   0  0  0  0  0  0  0  0  0  0  0  0
   -1.3866   -2.0329   -1.1263 C   0  0  0  0  0  0  0  0  0  0  0  0
   -1.4431   -2.2345    1.2553 C   0  0  0  0  0  0  0  0  0  0  0  0
    2.8825   -0.7001    0.3126 C   0  0  0  0  0  0  0  0  0  0  0  0
    2.4010    0.3548   -1.7861 C   0  0  0  0  0  0  0  0  0  0  0  0
    1.5280   -0.6215    0.6559 C   0  0  0  0  0  0  0  0  0  0  0  0
    1.0450    0.4323   -1.4399 C   0  0  0  0  0  0  0  0  0  0  0  0
   -1.8049    2.4058   -0.3171 C   0  0  0  0  0  0  0  0  0  0  0  0
   -2.2733    1.3570    1.9867 C   0  0  0  0  0  0  0  0  0  0  0  0
   -1.8225    0.9326   -0.7111 C   0  0  0  0  0  0  0  0  0  0  0  0
   -0.9592    0.6604    1.6549 C   0  0  0  0  0  0  0  0  0  0  0  0
    3.3325   -0.1998   -0.9081 C   0  0  0  0  0  0  0  0  0  0  0  0
    0.5705   -0.0505   -0.2080 C   0  0  0  0  0  0  0  0  0  0  0  0
   -2.4297    2.5390    1.0552 C   0  0  0  0  0  0  0  0  0  0  0  0
   -0.9252    0.0160    0.2141 C   0  0  0  0  0  0  0  0  0  0  0  0
   -1.6095   -1.3153    0.1350 N   0  0  0  0  0  0  0  0  0  0  0  0
   -3.0288    3.5572    1.3963 O   0  0  0  0  0  0  0  0  0  0  0  0
    5.4224   -0.2672   -0.4123 H   0  0  0  0  0  0  0  0  0  0  0  0
    4.9523   -1.2584   -1.8152 H   0  0  0  0  0  0  0  0  0  0  0  0
    5.0694    0.5133   -1.9533 H   0  0  0  0  0  0  0  0  0  0  0  0
   -1.5818   -1.4050   -2.0007 H   0  0  0  0  0  0  0  0  0  0  0  0
   -2.0824   -2.8764   -1.2079 H   0  0  0  0  0  0  0  0  0  0  0  0
   -0.3700   -2.4336   -1.2048 H   0  0  0  0  0  0  0  0  0  0  0  0
   -1.8296   -1.8140    2.1878 H   0  0  0  0  0  0  0  0  0  0  0  0
   -0.4067   -2.5494    1.4004 H   0  0  0  0  0  0  0  0  0  0  0  0
   -2.0375   -3.1426    1.0943 H   0  0  0  0  0  0  0  0  0  0  0  0
    3.5811   -1.1554    1.0111 H   0  0  0  0  0  0  0  0  0  0  0  0
    2.7213    0.7349   -2.7542 H   0  0  0  0  0  0  0  0  0  0  0  0
    1.2335   -1.0182    1.6240 H   0  0  0  0  0  0  0  0  0  0  0  0
    0.3847    0.8791   -2.1752 H   0  0  0  0  0  0  0  0  0  0  0  0
   -0.7896    2.8122   -0.2965 H   0  0  0  0  0  0  0  0  0  0  0  0
   -2.4043    2.9851   -1.0271 H   0  0  0  0  0  0  0  0  0  0  0  0
   -2.2450    1.7290    3.0162 H   0  0  0  0  0  0  0  0  0  0  0  0
   -3.1311    0.6873    1.8757 H   0  0  0  0  0  0  0  0  0  0  0  0
   -2.8717    0.6043   -0.6340 H   0  0  0  0  0  0  0  0  0  0  0  0
   -1.5869    0.8306   -1.7738 H   0  0  0  0  0  0  0  0  0  0  0  0
   -0.1627    1.4172    1.7301 H   0  0  0  0  0  0  0  0  0  0  0  0
   -0.7186   -0.0617    2.4415 H   0  0  0  0  0  0  0  0  0  0  0  0
  1 12  1  0
  2 16  1  0
  3 16  1  0
  4  6  2  0
  4 12  1  0
  5  7  1  0
  5 12  2  0
  6 13  1  0
  7 13  2  0
  8 10  1  0
  8 14  1  0
  9 11  1  0
  9 14  1  0
 10 15  1  0
 11 15  1  0
 13 15  1  0
 14 17  2  0
 15 16  1  0
  1 18  1  0
  1 19  1  0
  1 20  1  0
  2 21  1  0
  2 22  1  0
  2 23  1  0
  3 24  1  0
  3 25  1  0
  3 26  1  0
  4 27  1  0
  5 28  1  0
  6 29  1  0
  7 30  1  0
  8 31  1  0
  8 32  1  0
  9 33  1  0
  9 34  1  0
 10 35  1  0
 10 36  1  0
 11 37  1  0
 11 38  1  0
M  END
