
     RDKit          3D

 39 41  0  0  0  0  0  0  0  0999 V2000
   -0.4773    4.0356    0.7981 C   0  0  0  0  0  0  0  0  0  0  0  0
    1.0707   -2.8373   -0.3388 C   0  0  0  0  0  0  0  0  0  0  0  0
   -3.0053   -0.5546    1.2668 C   0  0  0  0  0  0  0  0  0  0  0  0
   -2.4023   -1.8864    0.7378 C   0  0  0  0  0  0  0  0  0  0  0  0
    2.8027    0.4601   -1.0544 C   0  0  0  0  0  0  0  0  0  0  0  0
    3.7286    0.4029    0.1700 C   0  0  0  0  0  0  0  0  0  0  0  0
   -3.0865   -0.5579   -1.1085 C   0  0  0  0  0  0  0  0  0  0  0  0
    0.7484    1.6868   -0.2359 C   0  0  0  0  0  0  0  0  0  0  0  0
   -2.8559    0.4052    0.0694 C   0  0  0  0  0  0  0  0  0  0  0  0
   -1.9686   -1.5355   -0.7004 C   0  0  0  0  0  0  0  0  0  0  0  0
    1.3262    0.4782   -0.7193 C   0  0  0  0  0  0  0  0  0  0  0  0
   -0.6131    1.7838    0.0712 C   0  0  0  0  0  0  0  0  0  0  0  0
   -1.3789    0.6558   -0.1367 C   0  0  0  0  0  0  0  0  0  0  0  0
   -0.8253   -0.5521   -0.6063 C   0  0  0  0  0  0  0  0  0  0  0  0
    0.5238   -0.6641   -0.8736 C   0  0  0  0  0  0  0  0  0  0  0  0
    3.7236   -0.8960    0.8418 N   0  0  0  0  0  0  0  0  0  0  0  0
   -1.2665    2.8817    0.5425 O   0  0  0  0  0  0  0  0  0  0  0  0
    1.0732   -1.8217   -1.3423 O   0  0  0  0  0  0  0  0  0  0  0  0
   -0.0286    4.4185   -0.1244 H   0  0  0  0  0  0  0  0  0  0  0  0
   -1.1389    4.8125    1.1933 H   0  0  0  0  0  0  0  0  0  0  0  0
    0.2873    3.8328    1.5555 H   0  0  0  0  0  0  0  0  0  0  0  0
    1.1694   -2.4370    0.6770 H   0  0  0  0  0  0  0  0  0  0  0  0
    0.1617   -3.4406   -0.4182 H   0  0  0  0  0  0  0  0  0  0  0  0
    1.9254   -3.4942   -0.5271 H   0  0  0  0  0  0  0  0  0  0  0  0
   -4.0612   -0.7005    1.5211 H   0  0  0  0  0  0  0  0  0  0  0  0
   -2.4789   -0.2022    2.1604 H   0  0  0  0  0  0  0  0  0  0  0  0
   -1.5697   -2.2253    1.3634 H   0  0  0  0  0  0  0  0  0  0  0  0
   -3.1718   -2.6666    0.7334 H   0  0  0  0  0  0  0  0  0  0  0  0
    3.0378   -0.3605   -1.7433 H   0  0  0  0  0  0  0  0  0  0  0  0
    3.0283    1.3745   -1.6197 H   0  0  0  0  0  0  0  0  0  0  0  0
    4.7529    0.6081   -0.1620 H   0  0  0  0  0  0  0  0  0  0  0  0
    3.4620    1.1795    0.8950 H   0  0  0  0  0  0  0  0  0  0  0  0
   -4.0818   -1.0165   -1.0996 H   0  0  0  0  0  0  0  0  0  0  0  0
   -2.9149   -0.0916   -2.0875 H   0  0  0  0  0  0  0  0  0  0  0  0
    1.4018    2.5457   -0.1159 H   0  0  0  0  0  0  0  0  0  0  0  0
   -3.4870    1.2945    0.0811 H   0  0  0  0  0  0  0  0  0  0  0  0
   -1.8141   -2.3742   -1.3798 H   0  0  0  0  0  0  0  0  0  0  0  0
    4.4558   -0.9153    1.5493 H   0  0  0  0  0  0  0  0  0  0  0  0
    3.9467   -1.6261    0.1668 H   0  0  0  0  0  0  0  0  0  0  0  0
  1 17  1  0
  2 18  1  0
  3  4  1  0
  3  9  1  0
  4 10  1  0
  5  6  1  0
  5 11  1  0
  6 16  1  0
  7  9  1  0
  7 10  1  0
  8 11  2  0
  8 12  1  0
  9 13  1  0
 10 14  1  0
 11 15  1  0
 12 13  2  0
 12 17  1  0
 13 14  1  0
 14 15  2  0
 15 18  1  0
  1 19  1  0
  1 20  1  0
  1 21  1  0
  2 22  1  0
  2 23  1  0
  2 24  1  0
  3 25  1  0
  3 26  1  0
  4 27  1  0
  4 28  1  0
  5 29  1  0
  5 30  1  0
  6 31  1  0
  6 32  1  0
  7 33  1  0
  7 34  1  0
  8 35  1  0
  9 36  1  0
 10 37  1  0
 16 38  1  0
 16 39  1  0
M  END
