
     RDKit          3D

 39 40  0  0  0  0  0  0  0  0999 V2000
    4.0154   -1.8424   -0.5133 C   0  0  0  0  0  0  0  0  0  0  0  0
   -3.9052   -0.6019    0.2423 C   0  0  0  0  0  0  0  0  0  0  0  0
    3.3298   -1.8855    0.8376 C   0  0  0  0  0  0  0  0  0  0  0  0
    0.3308    4.1659   -0.5942 C   0  0  0  0  0  0  0  0  0  0  0  0
   -0.8308    3.6326   -0.0474 C   0  0  0  0  0  0  0  0  0  0  0  0
    1.3966    3.3259   -0.8931 C   0  0  0  0  0  0  0  0  0  0  0  0
   -0.9244    2.2603    0.2103 C   0  0  0  0  0  0  0  0  0  0  0  0
    1.3014    1.9552   -0.6353 C   0  0  0  0  0  0  0  0  0  0  0  0
   -0.4465   -0.8092   -1.1141 C   0  0  0  0  0  0  0  0  0  0  0  0
   -0.7975   -0.5312    1.4149 C   0  0  0  0  0  0  0  0  0  0  0  0
   -1.9680   -0.7060   -1.2184 C   0  0  0  0  0  0  0  0  0  0  0  0
   -1.8432   -1.6004    1.0810 C   0  0  0  0  0  0  0  0  0  0  0  0
    0.1449    1.3870   -0.0586 C   0  0  0  0  0  0  0  0  0  0  0  0
    1.8334   -1.8067    0.6846 C   0  0  0  0  0  0  0  0  0  0  0  0
    0.0672   -0.1461    0.1842 C   0  0  0  0  0  0  0  0  0  0  0  0
   -2.6751   -1.3095   -0.0864 N   0  0  0  0  0  0  0  0  0  0  0  0
    1.0914   -2.7719    0.7778 O   0  0  0  0  0  0  0  0  0  0  0  0
    1.4611   -0.5298    0.4267 O   0  0  0  0  0  0  0  0  0  0  0  0
    3.6670   -2.6579   -1.1557 H   0  0  0  0  0  0  0  0  0  0  0  0
    5.0991   -1.9366   -0.3949 H   0  0  0  0  0  0  0  0  0  0  0  0
    3.8087   -0.9004   -1.0318 H   0  0  0  0  0  0  0  0  0  0  0  0
   -4.5352   -0.4879   -0.6470 H   0  0  0  0  0  0  0  0  0  0  0  0
   -4.4953   -1.1692    0.9704 H   0  0  0  0  0  0  0  0  0  0  0  0
   -3.7121    0.3921    0.6581 H   0  0  0  0  0  0  0  0  0  0  0  0
    3.6696   -1.0672    1.4818 H   0  0  0  0  0  0  0  0  0  0  0  0
    3.5730   -2.8188    1.3575 H   0  0  0  0  0  0  0  0  0  0  0  0
    0.4017    5.2313   -0.7947 H   0  0  0  0  0  0  0  0  0  0  0  0
   -1.6730    4.2833    0.1749 H   0  0  0  0  0  0  0  0  0  0  0  0
    2.3042    3.7329   -1.3313 H   0  0  0  0  0  0  0  0  0  0  0  0
   -1.8656    1.8952    0.6101 H   0  0  0  0  0  0  0  0  0  0  0  0
    2.1519    1.3293   -0.8986 H   0  0  0  0  0  0  0  0  0  0  0  0
    0.0183   -0.3549   -1.9989 H   0  0  0  0  0  0  0  0  0  0  0  0
   -0.1583   -1.8657   -1.1626 H   0  0  0  0  0  0  0  0  0  0  0  0
   -0.1661   -0.9039    2.2312 H   0  0  0  0  0  0  0  0  0  0  0  0
   -1.3220    0.3232    1.8511 H   0  0  0  0  0  0  0  0  0  0  0  0
   -2.2946   -1.2130   -2.1342 H   0  0  0  0  0  0  0  0  0  0  0  0
   -2.2464    0.3468   -1.3449 H   0  0  0  0  0  0  0  0  0  0  0  0
   -1.3417   -2.5562    0.8949 H   0  0  0  0  0  0  0  0  0  0  0  0
   -2.4645   -1.7886    1.9662 H   0  0  0  0  0  0  0  0  0  0  0  0
  1  3  1  0
  2 16  1  0
  3 14  1  0
  4  5  2  0
  4  6  1  0
  5  7  1  0
  6  8  2  0
  7 13  2  0
  8 13  1  0
  9 11  1  0
  9 15  1  0
 10 12  1  0
 10 15  1  0
 11 16  1  0
 12 16  1  0
 13 15  1  0
 14 17  2  0
 14 18  1  0
 15 18  1  0
  1 19  1  0
  1 20  1  0
  1 21  1  0
  2 22  1  0
  2 23  1  0
  2 24  1  0
  3 25  1  0
  3 26  1  0
  4 27  1  0
  5 28  1  0
  6 29  1  0
  7 30  1  0
  8 31  1  0
  9 32  1  0
  9 33  1  0
 10 34  1  0
 10 35  1  0
 11 36  1  0
 11 37  1  0
 12 38  1  0
 12 39  1  0
M  END
