
     RDKit          3D

 32 35  0  0  0  0  0  0  0  0999 V2000
   -0.5639    2.8309    1.2487 C   0  0  0  0  0  0  0  0  0  0  0  0
   -1.8564    2.9661    0.7575 C   0  0  0  0  0  0  0  0  0  0  0  0
    3.3652    0.0697   -1.7099 C   0  0  0  0  0  0  0  0  0  0  0  0
    4.3967   -0.2028   -0.8109 C   0  0  0  0  0  0  0  0  0  0  0  0
    0.1032    1.6112    1.1274 C   0  0  0  0  0  0  0  0  0  0  0  0
   -2.4893    1.8785    0.1547 C   0  0  0  0  0  0  0  0  0  0  0  0
    2.0370   -0.1072   -1.3217 C   0  0  0  0  0  0  0  0  0  0  0  0
    4.1036   -0.6538    0.4789 C   0  0  0  0  0  0  0  0  0  0  0  0
   -1.4324   -2.3904    0.7195 C   0  0  0  0  0  0  0  0  0  0  0  0
   -0.5130    0.5055    0.5110 C   0  0  0  0  0  0  0  0  0  0  0  0
   -1.8335    0.6410    0.0261 C   0  0  0  0  0  0  0  0  0  0  0  0
    1.7439   -0.5542   -0.0262 C   0  0  0  0  0  0  0  0  0  0  0  0
    2.7759   -0.8345    0.8762 C   0  0  0  0  0  0  0  0  0  0  0  0
   -2.3930   -1.8259   -0.2493 C   0  0  0  0  0  0  0  0  0  0  0  0
    0.3108   -0.7488    0.3317 C   0  0  0  0  0  0  0  0  0  0  0  0
   -2.5444   -0.4891   -0.5410 C   0  0  0  0  0  0  0  0  0  0  0  0
    2.4758   -1.3436    2.4984 Cl  0  0  0  0  0  0  0  0  0  0  0  0
   -0.0679   -1.9794    0.4030 N   0  0  0  0  0  0  0  0  0  0  0  0
   -3.2827   -2.5654   -0.9770 N   0  0  0  0  0  0  0  0  0  0  0  0
   -3.5419   -0.4862   -1.4735 N   0  0  0  0  0  0  0  0  0  0  0  0
   -3.9877   -1.7274   -1.7276 N   0  0  0  0  0  0  0  0  0  0  0  0
   -0.0730    3.6731    1.7313 H   0  0  0  0  0  0  0  0  0  0  0  0
   -2.3805    3.9137    0.8595 H   0  0  0  0  0  0  0  0  0  0  0  0
    3.5968    0.4092   -2.7169 H   0  0  0  0  0  0  0  0  0  0  0  0
    5.4323   -0.0701   -1.1162 H   0  0  0  0  0  0  0  0  0  0  0  0
    1.1100    1.5401    1.5320 H   0  0  0  0  0  0  0  0  0  0  0  0
   -3.5152    2.0068   -0.1828 H   0  0  0  0  0  0  0  0  0  0  0  0
    1.2366    0.0840   -2.0323 H   0  0  0  0  0  0  0  0  0  0  0  0
    4.9166   -0.8635    1.1698 H   0  0  0  0  0  0  0  0  0  0  0  0
   -1.6908   -2.0926    1.7424 H   0  0  0  0  0  0  0  0  0  0  0  0
   -1.4786   -3.4844    0.6884 H   0  0  0  0  0  0  0  0  0  0  0  0
   -3.9600    0.2898   -1.9711 H   0  0  0  0  0  0  0  0  0  0  0  0
  1  2  2  0
  1  5  1  0
  2  6  1  0
  3  4  2  0
  3  7  1  0
  4  8  1  0
  5 10  2  0
  6 11  2  0
  7 12  2  0
  8 13  2  0
  9 14  1  0
  9 18  1  0
 10 11  1  0
 10 15  1  0
 11 16  1  0
 12 13  1  0
 12 15  1  0
 13 17  1  0
 14 16  2  0
 14 19  1  0
 15 18  2  0
 16 20  1  0
 19 21  2  0
 20 21  1  0
  1 22  1  0
  2 23  1  0
  3 24  1  0
  4 25  1  0
  5 26  1  0
  6 27  1  0
  7 28  1  0
  8 29  1  0
  9 30  1  0
  9 31  1  0
 20 32  1  0
M  END
