
     RDKit          3D

 33 35  0  0  0  0  0  0  0  0999 V2000
   -1.8594    2.3664    1.1649 C   0  0  0  0  0  0  0  0  0  0  0  0
    4.3718   -0.4607   -1.1090 C   0  0  0  0  0  0  0  0  0  0  0  0
    4.0679    0.7682   -0.5239 C   0  0  0  0  0  0  0  0  0  0  0  0
    3.3511   -1.3579   -1.4238 C   0  0  0  0  0  0  0  0  0  0  0  0
    2.7413    1.0988   -0.2439 C   0  0  0  0  0  0  0  0  0  0  0  0
    2.0220   -1.0321   -1.1460 C   0  0  0  0  0  0  0  0  0  0  0  0
   -2.1216   -2.6220    1.2785 C   0  0  0  0  0  0  0  0  0  0  0  0
   -2.6613   -1.7508    0.3263 C   0  0  0  0  0  0  0  0  0  0  0  0
   -0.0924   -1.3371    1.2773 C   0  0  0  0  0  0  0  0  0  0  0  0
   -1.3877    2.2971   -0.2788 C   0  0  0  0  0  0  0  0  0  0  0  0
    1.7157    0.1930   -0.5395 C   0  0  0  0  0  0  0  0  0  0  0  0
   -0.8413   -2.4030    1.7601 C   0  0  0  0  0  0  0  0  0  0  0  0
   -0.6212   -0.4746    0.2932 C   0  0  0  0  0  0  0  0  0  0  0  0
   -1.9386   -0.6428   -0.1694 C   0  0  0  0  0  0  0  0  0  0  0  0
    0.2980    0.5713   -0.2309 C   0  0  0  0  0  0  0  0  0  0  0  0
   -2.3292    1.5982   -1.2567 C   0  0  0  0  0  0  0  0  0  0  0  0
   -0.1771   -3.4535    2.9461 Cl  0  0  0  0  0  0  0  0  0  0  0  0
   -3.8543   -0.4102   -2.1198 Cl  0  0  0  0  0  0  0  0  0  0  0  0
   -0.0254    1.7972   -0.4341 N   0  0  0  0  0  0  0  0  0  0  0  0
   -2.5755    0.2380   -1.0913 N   0  0  0  0  0  0  0  0  0  0  0  0
   -2.8908    2.2766   -2.1278 O   0  0  0  0  0  0  0  0  0  0  0  0
   -2.8484    2.8347    1.2176 H   0  0  0  0  0  0  0  0  0  0  0  0
   -1.9450    1.3933    1.6519 H   0  0  0  0  0  0  0  0  0  0  0  0
   -1.1666    2.9673    1.7642 H   0  0  0  0  0  0  0  0  0  0  0  0
    5.4057   -0.7143   -1.3313 H   0  0  0  0  0  0  0  0  0  0  0  0
    4.8627    1.4729   -0.2923 H   0  0  0  0  0  0  0  0  0  0  0  0
    3.5913   -2.3077   -1.8957 H   0  0  0  0  0  0  0  0  0  0  0  0
    2.5099    2.0634    0.2024 H   0  0  0  0  0  0  0  0  0  0  0  0
    1.2403   -1.7336   -1.4240 H   0  0  0  0  0  0  0  0  0  0  0  0
   -2.7171   -3.4542    1.6469 H   0  0  0  0  0  0  0  0  0  0  0  0
   -3.6872   -1.9406    0.0157 H   0  0  0  0  0  0  0  0  0  0  0  0
    0.9119   -1.1810    1.6678 H   0  0  0  0  0  0  0  0  0  0  0  0
   -1.3497    3.3397   -0.6247 H   0  0  0  0  0  0  0  0  0  0  0  0
  1 10  1  0
  2  3  2  0
  2  4  1  0
  3  5  1  0
  4  6  2  0
  5 11  2  0
  6 11  1  0
  7  8  2  0
  7 12  1  0
  8 14  1  0
  9 12  2  0
  9 13  1  0
 10 16  1  0
 10 19  1  0
 11 15  1  0
 12 17  1  0
 13 14  2  0
 13 15  1  0
 14 20  1  0
 15 19  2  0
 16 20  1  0
 16 21  2  0
 18 20  1  0
  1 22  1  0
  1 23  1  0
  1 24  1  0
  2 25  1  0
  3 26  1  0
  4 27  1  0
  5 28  1  0
  6 29  1  0
  7 30  1  0
  8 31  1  0
  9 32  1  0
 10 33  1  0
M  END
