
     RDKit          3D

 38 41  0  0  0  0  0  0  0  0999 V2000
    4.0324    0.9236   -1.1203 C   0  0  0  0  0  0  0  0  0  0  0  0
    4.4574   -0.4009    0.8573 C   0  0  0  0  0  0  0  0  0  0  0  0
    2.7530    0.3703   -1.2103 C   0  0  0  0  0  0  0  0  0  0  0  0
    3.1763   -0.9512    0.7617 C   0  0  0  0  0  0  0  0  0  0  0  0
   -3.3855    0.4498   -0.1556 C   0  0  0  0  0  0  0  0  0  0  0  0
   -1.4147    1.6672    0.7996 C   0  0  0  0  0  0  0  0  0  0  0  0
   -2.1200   -0.5370    1.7709 C   0  0  0  0  0  0  0  0  0  0  0  0
   -1.2563    0.6163   -1.4690 C   0  0  0  0  0  0  0  0  0  0  0  0
   -1.9633   -1.5843   -0.4985 C   0  0  0  0  0  0  0  0  0  0  0  0
   -2.6201    0.7736    1.1387 C   0  0  0  0  0  0  0  0  0  0  0  0
   -2.4614   -0.2815   -1.1443 C   0  0  0  0  0  0  0  0  0  0  0  0
   -0.4720    0.9417   -0.1825 C   0  0  0  0  0  0  0  0  0  0  0  0
   -1.1818   -1.2721    0.7937 C   0  0  0  0  0  0  0  0  0  0  0  0
    4.8792    0.5336   -0.0859 C   0  0  0  0  0  0  0  0  0  0  0  0
    2.3181   -0.5786   -0.2801 C   0  0  0  0  0  0  0  0  0  0  0  0
    0.0367   -0.3573    0.4921 C   0  0  0  0  0  0  0  0  0  0  0  0
    6.6107    1.2808    0.0426 Br  0  0  0  0  0  0  0  0  0  0  0  0
    1.0044   -1.0878   -0.3574 N   0  0  0  0  0  0  0  0  0  0  0  0
    4.3528    1.6528   -1.8589 H   0  0  0  0  0  0  0  0  0  0  0  0
    5.1123   -0.7048    1.6692 H   0  0  0  0  0  0  0  0  0  0  0  0
    2.0929    0.6719   -2.0198 H   0  0  0  0  0  0  0  0  0  0  0  0
    2.8530   -1.6713    1.5083 H   0  0  0  0  0  0  0  0  0  0  0  0
   -3.7630    1.3745   -0.6092 H   0  0  0  0  0  0  0  0  0  0  0  0
   -4.2594   -0.1730    0.0716 H   0  0  0  0  0  0  0  0  0  0  0  0
   -0.8716    1.9279    1.7163 H   0  0  0  0  0  0  0  0  0  0  0  0
   -1.7609    2.6096    0.3575 H   0  0  0  0  0  0  0  0  0  0  0  0
   -2.9725   -1.1787    2.0257 H   0  0  0  0  0  0  0  0  0  0  0  0
   -1.5924   -0.3234    2.7086 H   0  0  0  0  0  0  0  0  0  0  0  0
   -0.6059    0.1217   -2.1999 H   0  0  0  0  0  0  0  0  0  0  0  0
   -1.6018    1.5463   -1.9375 H   0  0  0  0  0  0  0  0  0  0  0  0
   -2.8161   -2.2350   -0.2680 H   0  0  0  0  0  0  0  0  0  0  0  0
   -1.3325   -2.1363   -1.2052 H   0  0  0  0  0  0  0  0  0  0  0  0
   -3.2819    1.2942    1.8397 H   0  0  0  0  0  0  0  0  0  0  0  0
   -3.0117   -0.5101   -2.0637 H   0  0  0  0  0  0  0  0  0  0  0  0
    0.3611    1.6096   -0.4238 H   0  0  0  0  0  0  0  0  0  0  0  0
   -0.8459   -2.2109    1.2502 H   0  0  0  0  0  0  0  0  0  0  0  0
    0.5131   -0.1081    1.4511 H   0  0  0  0  0  0  0  0  0  0  0  0
    1.0373   -2.0628   -0.0575 H   0  0  0  0  0  0  0  0  0  0  0  0
  1  3  2  0
  1 14  1  0
  2  4  1  0
  2 14  2  0
  3 15  1  0
  4 15  2  0
  5 10  1  0
  5 11  1  0
  6 10  1  0
  6 12  1  0
  7 10  1  0
  7 13  1  0
  8 11  1  0
  8 12  1  0
  9 11  1  0
  9 13  1  0
 12 16  1  0
 13 16  1  0
 14 17  1  0
 15 18  1  0
 16 18  1  0
  1 19  1  0
  2 20  1  0
  3 21  1  0
  4 22  1  0
  5 23  1  0
  5 24  1  0
  6 25  1  0
  6 26  1  0
  7 27  1  0
  7 28  1  0
  8 29  1  0
  8 30  1  0
  9 31  1  0
  9 32  1  0
 10 33  1  0
 11 34  1  0
 12 35  1  0
 13 36  1  0
 16 37  1  0
 18 38  1  0
M  END
