
     RDKit          3D

 35 37  0  0  0  0  0  0  0  0999 V2000
   -3.0141    1.9733    1.3830 C   0  0  0  0  0  0  0  0  0  0  0  0
    3.5233   -0.0768    1.5080 C   0  0  0  0  0  0  0  0  0  0  0  0
    4.5564   -0.1768    0.5733 C   0  0  0  0  0  0  0  0  0  0  0  0
    2.2207    0.2012    1.0870 C   0  0  0  0  0  0  0  0  0  0  0  0
    4.2894   -0.0003   -0.7853 C   0  0  0  0  0  0  0  0  0  0  0  0
   -2.3125   -2.1646    0.6032 C   0  0  0  0  0  0  0  0  0  0  0  0
   -2.6036   -0.7994    0.7152 C   0  0  0  0  0  0  0  0  0  0  0  0
   -0.2392   -1.6357   -0.4570 C   0  0  0  0  0  0  0  0  0  0  0  0
   -0.9547    2.0909   -1.8281 C   0  0  0  0  0  0  0  0  0  0  0  0
   -1.1573   -2.5963   -0.0388 C   0  0  0  0  0  0  0  0  0  0  0  0
    1.9559    0.3767   -0.2767 C   0  0  0  0  0  0  0  0  0  0  0  0
   -0.5136   -0.2578   -0.3350 C   0  0  0  0  0  0  0  0  0  0  0  0
    2.9911    0.2775   -1.2057 C   0  0  0  0  0  0  0  0  0  0  0  0
   -1.7289    0.1840    0.2203 C   0  0  0  0  0  0  0  0  0  0  0  0
   -1.7565    2.5408   -0.6166 C   0  0  0  0  0  0  0  0  0  0  0  0
    0.5742    0.6841   -0.7271 C   0  0  0  0  0  0  0  0  0  0  0  0
    2.7560    0.3977   -2.5204 F   0  0  0  0  0  0  0  0  0  0  0  0
   -0.8191   -3.9515   -0.0509 N   0  0  0  0  0  0  0  0  0  0  0  0
    0.4042    1.7625   -1.4123 N   0  0  0  0  0  0  0  0  0  0  0  0
   -2.0967    1.5641    0.3273 N   0  0  0  0  0  0  0  0  0  0  0  0
   -2.1413    3.7106   -0.5222 O   0  0  0  0  0  0  0  0  0  0  0  0
   -2.8062    1.4233    2.3064 H   0  0  0  0  0  0  0  0  0  0  0  0
   -2.9060    3.0389    1.6084 H   0  0  0  0  0  0  0  0  0  0  0  0
   -4.0421    1.7956    1.0520 H   0  0  0  0  0  0  0  0  0  0  0  0
    3.7350   -0.2080    2.5669 H   0  0  0  0  0  0  0  0  0  0  0  0
    5.5703   -0.3895    0.9041 H   0  0  0  0  0  0  0  0  0  0  0  0
    1.4268    0.2948    1.8235 H   0  0  0  0  0  0  0  0  0  0  0  0
    5.0838   -0.0786   -1.5210 H   0  0  0  0  0  0  0  0  0  0  0  0
   -3.0131   -2.8878    1.0141 H   0  0  0  0  0  0  0  0  0  0  0  0
   -3.5512   -0.5329    1.1762 H   0  0  0  0  0  0  0  0  0  0  0  0
    0.7048   -1.9656   -0.8851 H   0  0  0  0  0  0  0  0  0  0  0  0
   -1.4573    1.2714   -2.3543 H   0  0  0  0  0  0  0  0  0  0  0  0
   -0.9084    2.9271   -2.5347 H   0  0  0  0  0  0  0  0  0  0  0  0
   -1.6157   -4.5812   -0.0234 H   0  0  0  0  0  0  0  0  0  0  0  0
   -0.1545   -4.2115   -0.7742 H   0  0  0  0  0  0  0  0  0  0  0  0
  1 20  1  0
  2  3  2  0
  2  4  1  0
  3  5  1  0
  4 11  2  0
  5 13  2  0
  6  7  2  0
  6 10  1  0
  7 14  1  0
  8 10  2  0
  8 12  1  0
  9 15  1  0
  9 19  1  0
 10 18  1  0
 11 13  1  0
 11 16  1  0
 12 14  2  0
 12 16  1  0
 13 17  1  0
 14 20  1  0
 15 20  1  0
 15 21  2  0
 16 19  2  0
  1 22  1  0
  1 23  1  0
  1 24  1  0
  2 25  1  0
  3 26  1  0
  4 27  1  0
  5 28  1  0
  6 29  1  0
  7 30  1  0
  8 31  1  0
  9 32  1  0
  9 33  1  0
 18 34  1  0
 18 35  1  0
M  END
