
     RDKit          3D

 43 44  0  0  0  0  0  0  0  0999 V2000
   -1.5967    1.7816   -1.3622 C   0  0  0  0  0  0  0  0  0  0  0  0
   -2.3809    0.0351   -2.7830 C   0  0  0  0  0  0  0  0  0  0  0  0
    1.0747   -1.0569   -0.3449 C   0  0  0  0  0  0  0  0  0  0  0  0
   -2.7754   -2.6591    0.6133 C   0  0  0  0  0  0  0  0  0  0  0  0
   -2.5505   -1.9206    1.9272 C   0  0  0  0  0  0  0  0  0  0  0  0
   -2.2259   -1.9339   -0.6223 C   0  0  0  0  0  0  0  0  0  0  0  0
   -1.1757   -1.2787    1.9594 C   0  0  0  0  0  0  0  0  0  0  0  0
    2.7269    1.6339   -0.5897 C   0  0  0  0  0  0  0  0  0  0  0  0
    4.0020    2.0221   -1.0046 C   0  0  0  0  0  0  0  0  0  0  0  0
    3.5509    1.3580    1.6775 C   0  0  0  0  0  0  0  0  0  0  0  0
    2.5096    1.2826    0.7476 C   0  0  0  0  0  0  0  0  0  0  0  0
    5.0543    2.0750   -0.0834 C   0  0  0  0  0  0  0  0  0  0  0  0
    4.8263    1.7464    1.2601 C   0  0  0  0  0  0  0  0  0  0  0  0
   -1.9751   -0.4266   -0.3871 C   0  0  0  0  0  0  0  0  0  0  0  0
   -1.0009   -0.2255    0.8459 C   0  0  0  0  0  0  0  0  0  0  0  0
    1.1570    0.9075    1.2186 C   0  0  0  0  0  0  0  0  0  0  0  0
    6.6063    2.5594   -0.6680 Cl  0  0  0  0  0  0  0  0  0  0  0  0
    6.0784    1.8012    2.4497 Cl  0  0  0  0  0  0  0  0  0  0  0  0
   -1.5594    0.3318   -1.6068 N   0  0  0  0  0  0  0  0  0  0  0  0
    0.4397   -0.0655    0.5206 N   0  0  0  0  0  0  0  0  0  0  0  0
    0.7202    1.5116    2.1958 O   0  0  0  0  0  0  0  0  0  0  0  0
   -2.6055    2.1281   -1.1098 H   0  0  0  0  0  0  0  0  0  0  0  0
   -1.2601    2.3281   -2.2510 H   0  0  0  0  0  0  0  0  0  0  0  0
   -0.9187    2.0810   -0.5588 H   0  0  0  0  0  0  0  0  0  0  0  0
   -2.0994    0.6767   -3.6266 H   0  0  0  0  0  0  0  0  0  0  0  0
   -2.2137   -0.9884   -3.1327 H   0  0  0  0  0  0  0  0  0  0  0  0
   -3.4494    0.1792   -2.5878 H   0  0  0  0  0  0  0  0  0  0  0  0
    0.7447   -2.0588   -0.0611 H   0  0  0  0  0  0  0  0  0  0  0  0
    0.8084   -0.8616   -1.3855 H   0  0  0  0  0  0  0  0  0  0  0  0
    2.1626   -1.0441   -0.2488 H   0  0  0  0  0  0  0  0  0  0  0  0
   -3.8519   -2.8307    0.4904 H   0  0  0  0  0  0  0  0  0  0  0  0
   -2.3164   -3.6543    0.6660 H   0  0  0  0  0  0  0  0  0  0  0  0
   -2.6616   -2.6195    2.7640 H   0  0  0  0  0  0  0  0  0  0  0  0
   -3.3206   -1.1506    2.0594 H   0  0  0  0  0  0  0  0  0  0  0  0
   -2.9520   -2.0953   -1.4268 H   0  0  0  0  0  0  0  0  0  0  0  0
   -1.3029   -2.4239   -0.9503 H   0  0  0  0  0  0  0  0  0  0  0  0
   -1.0081   -0.8063    2.9353 H   0  0  0  0  0  0  0  0  0  0  0  0
   -0.4185   -2.0679    1.8782 H   0  0  0  0  0  0  0  0  0  0  0  0
    1.9054    1.6160   -1.3034 H   0  0  0  0  0  0  0  0  0  0  0  0
    4.1681    2.2899   -2.0457 H   0  0  0  0  0  0  0  0  0  0  0  0
    3.3595    1.1172    2.7211 H   0  0  0  0  0  0  0  0  0  0  0  0
   -2.9523   -0.0213   -0.0806 H   0  0  0  0  0  0  0  0  0  0  0  0
   -1.3235    0.7270    1.2903 H   0  0  0  0  0  0  0  0  0  0  0  0
  1 19  1  0
  2 19  1  0
  3 20  1  0
  4  5  1  0
  4  6  1  0
  5  7  1  0
  6 14  1  0
  7 15  1  0
  8  9  2  0
  8 11  1  0
  9 12  1  0
 10 11  2  0
 10 13  1  0
 11 16  1  0
 12 13  2  0
 12 17  1  0
 13 18  1  0
 14 15  1  0
 14 19  1  0
 15 20  1  0
 16 20  1  0
 16 21  2  0
  1 22  1  0
  1 23  1  0
  1 24  1  0
  2 25  1  0
  2 26  1  0
  2 27  1  0
  3 28  1  0
  3 29  1  0
  3 30  1  0
  4 31  1  0
  4 32  1  0
  5 33  1  0
  5 34  1  0
  6 35  1  0
  6 36  1  0
  7 37  1  0
  7 38  1  0
  8 39  1  0
  9 40  1  0
 10 41  1  0
 14 42  1  0
 15 43  1  0
M  END
