
     RDKit          3D

 36 38  0  0  0  0  0  0  0  0999 V2000
    4.2935    0.4066   -0.0192 C   0  0  0  0  0  0  0  0  0  0  0  0
    3.8523   -0.5292    0.9104 C   0  0  0  0  0  0  0  0  0  0  0  0
    3.4368    0.8282   -1.0297 C   0  0  0  0  0  0  0  0  0  0  0  0
    2.5528   -1.0407    0.8336 C   0  0  0  0  0  0  0  0  0  0  0  0
    2.1384    0.3167   -1.1056 C   0  0  0  0  0  0  0  0  0  0  0  0
   -0.8062    0.7454    1.7190 C   0  0  0  0  0  0  0  0  0  0  0  0
   -1.1959   -0.5467    2.4440 C   0  0  0  0  0  0  0  0  0  0  0  0
   -1.3136   -0.1144   -1.9782 C   0  0  0  0  0  0  0  0  0  0  0  0
   -0.2815   -2.1444    0.8142 C   0  0  0  0  0  0  0  0  0  0  0  0
    1.6614   -0.6177   -0.1652 C   0  0  0  0  0  0  0  0  0  0  0  0
   -1.3234    0.7847    0.2959 C   0  0  0  0  0  0  0  0  0  0  0  0
   -0.8234   -0.1406   -0.6540 C   0  0  0  0  0  0  0  0  0  0  0  0
    0.2438   -1.1870   -0.3019 C   0  0  0  0  0  0  0  0  0  0  0  0
   -2.2791    0.8096   -2.3620 C   0  0  0  0  0  0  0  0  0  0  0  0
   -2.3086    1.7098   -0.1154 C   0  0  0  0  0  0  0  0  0  0  0  0
   -2.7776    1.7189   -1.4374 C   0  0  0  0  0  0  0  0  0  0  0  0
   -3.0039    2.8623    0.9827 Cl  0  0  0  0  0  0  0  0  0  0  0  0
   -0.2890   -1.6701    2.2048 N   0  0  0  0  0  0  0  0  0  0  0  0
   -2.7456    0.8300   -3.6460 O   0  0  0  0  0  0  0  0  0  0  0  0
   -3.7343    2.6145   -1.8471 O   0  0  0  0  0  0  0  0  0  0  0  0
    5.3025    0.8042    0.0432 H   0  0  0  0  0  0  0  0  0  0  0  0
    4.5180   -0.8651    1.7013 H   0  0  0  0  0  0  0  0  0  0  0  0
    3.7761    1.5559   -1.7621 H   0  0  0  0  0  0  0  0  0  0  0  0
    2.2546   -1.7713    1.5809 H   0  0  0  0  0  0  0  0  0  0  0  0
    1.5002    0.6650   -1.9144 H   0  0  0  0  0  0  0  0  0  0  0  0
    0.2792    0.8986    1.7275 H   0  0  0  0  0  0  0  0  0  0  0  0
   -1.1936    1.5820    2.3074 H   0  0  0  0  0  0  0  0  0  0  0  0
   -2.2318   -0.8333    2.2235 H   0  0  0  0  0  0  0  0  0  0  0  0
   -1.1549   -0.3436    3.5211 H   0  0  0  0  0  0  0  0  0  0  0  0
   -0.9272   -0.8221   -2.7077 H   0  0  0  0  0  0  0  0  0  0  0  0
   -1.2889   -2.4957    0.5521 H   0  0  0  0  0  0  0  0  0  0  0  0
    0.3523   -3.0410    0.8007 H   0  0  0  0  0  0  0  0  0  0  0  0
    0.3303   -1.8502   -1.1775 H   0  0  0  0  0  0  0  0  0  0  0  0
   -0.5680   -2.4433    2.8097 H   0  0  0  0  0  0  0  0  0  0  0  0
   -2.2917    0.1511   -4.1679 H   0  0  0  0  0  0  0  0  0  0  0  0
   -3.9539    3.1731   -1.0806 H   0  0  0  0  0  0  0  0  0  0  0  0
  1  2  2  0
  1  3  1  0
  2  4  1  0
  3  5  2  0
  4 10  2  0
  5 10  1  0
  6  7  1  0
  6 11  1  0
  7 18  1  0
  8 12  2  0
  8 14  1  0
  9 13  1  0
  9 18  1  0
 10 13  1  0
 11 12  1  0
 11 15  2  0
 12 13  1  0
 14 16  2  0
 14 19  1  0
 15 16  1  0
 15 17  1  0
 16 20  1  0
  1 21  1  0
  2 22  1  0
  3 23  1  0
  4 24  1  0
  5 25  1  0
  6 26  1  0
  6 27  1  0
  7 28  1  0
  7 29  1  0
  8 30  1  0
  9 31  1  0
  9 32  1  0
 13 33  1  0
 18 34  1  0
 19 35  1  0
 20 36  1  0
M  END
