
     RDKit          3D

 37 39  0  0  0  0  0  0  0  0999 V2000
    6.0318   -1.2597   -0.5298 C   0  0  0  0  0  0  0  0  0  0  0  0
    4.5938   -0.7959   -0.3895 C   0  0  0  0  0  0  0  0  0  0  0  0
   -1.2138    0.3705   -0.6507 C   0  0  0  0  0  0  0  0  0  0  0  0
   -3.3895    0.7020    0.5754 C   0  0  0  0  0  0  0  0  0  0  0  0
   -0.3489    0.9202    0.2177 C   0  0  0  0  0  0  0  0  0  0  0  0
   -4.6911    0.2920    0.8873 C   0  0  0  0  0  0  0  0  0  0  0  0
   -3.0823   -1.2321   -0.8668 C   0  0  0  0  0  0  0  0  0  0  0  0
    2.0946    0.5020    0.5558 C   0  0  0  0  0  0  0  0  0  0  0  0
    3.5486    2.4517    0.1562 C   0  0  0  0  0  0  0  0  0  0  0  0
   -6.2847   -2.5904   -0.3396 C   0  0  0  0  0  0  0  0  0  0  0  0
   -2.5717   -0.0598   -0.2899 C   0  0  0  0  0  0  0  0  0  0  0  0
    1.0422    1.3622   -0.1454 C   0  0  0  0  0  0  0  0  0  0  0  0
    3.4392    1.1321    0.3460 C   0  0  0  0  0  0  0  0  0  0  0  0
   -5.1499   -0.8722    0.3134 C   0  0  0  0  0  0  0  0  0  0  0  0
   -4.3683   -1.6122   -0.5410 C   0  0  0  0  0  0  0  0  0  0  0  0
    2.3729    3.3363    0.1761 C   0  0  0  0  0  0  0  0  0  0  0  0
    2.5098    4.5526    0.1703 O   0  0  0  0  0  0  0  0  0  0  0  0
    4.5806    0.3611    0.4500 O   0  0  0  0  0  0  0  0  0  0  0  0
   -6.3804   -1.4197    0.4979 O   0  0  0  0  0  0  0  0  0  0  0  0
   -5.0093   -2.7197   -1.0025 O   0  0  0  0  0  0  0  0  0  0  0  0
    1.1565    2.7419    0.2429 O   0  0  0  0  0  0  0  0  0  0  0  0
    6.0942   -2.1516   -1.1595 H   0  0  0  0  0  0  0  0  0  0  0  0
    6.4609   -1.4886    0.4513 H   0  0  0  0  0  0  0  0  0  0  0  0
    6.6494   -0.4708   -0.9717 H   0  0  0  0  0  0  0  0  0  0  0  0
    4.1875   -0.5622   -1.3810 H   0  0  0  0  0  0  0  0  0  0  0  0
    4.0004   -1.5920    0.0724 H   0  0  0  0  0  0  0  0  0  0  0  0
   -0.9256    0.2033   -1.6863 H   0  0  0  0  0  0  0  0  0  0  0  0
   -3.0194    1.6315    1.0039 H   0  0  0  0  0  0  0  0  0  0  0  0
   -0.6350    1.0706    1.2568 H   0  0  0  0  0  0  0  0  0  0  0  0
   -5.3195    0.8742    1.5516 H   0  0  0  0  0  0  0  0  0  0  0  0
   -2.4930   -1.8383   -1.5460 H   0  0  0  0  0  0  0  0  0  0  0  0
    1.9091    0.4450    1.6360 H   0  0  0  0  0  0  0  0  0  0  0  0
    2.0445   -0.5158    0.1574 H   0  0  0  0  0  0  0  0  0  0  0  0
    4.5108    2.9380    0.0535 H   0  0  0  0  0  0  0  0  0  0  0  0
   -6.4490   -3.4794    0.2802 H   0  0  0  0  0  0  0  0  0  0  0  0
   -7.0719   -2.5423   -1.1009 H   0  0  0  0  0  0  0  0  0  0  0  0
    1.1766    1.3156   -1.2351 H   0  0  0  0  0  0  0  0  0  0  0  0
  1  2  1  0
  2 18  1  0
  3  5  2  3
  3 11  1  0
  4  6  2  0
  4 11  1  0
  5 12  1  0
  6 14  1  0
  7 11  2  0
  7 15  1  0
  8 12  1  0
  8 13  1  0
  9 13  2  0
  9 16  1  0
 10 19  1  0
 10 20  1  0
 12 21  1  0
 13 18  1  0
 14 15  2  0
 14 19  1  0
 15 20  1  0
 16 17  2  0
 16 21  1  0
  1 22  1  0
  1 23  1  0
  1 24  1  0
  2 25  1  0
  2 26  1  0
  3 27  1  0
  4 28  1  0
  5 29  1  0
  6 30  1  0
  7 31  1  0
  8 32  1  0
  8 33  1  0
  9 34  1  0
 10 35  1  0
 10 36  1  0
 12 37  1  0
M  END
