
     RDKit          3D

 36 37  0  0  0  0  0  0  0  0999 V2000
   -0.4263    2.0934   -0.4925 C   0  0  0  0  0  0  0  0  0  0  0  0
   -1.2451    1.5109   -2.6563 C   0  0  0  0  0  0  0  0  0  0  0  0
    3.6314    0.5788    2.2454 C   0  0  0  0  0  0  0  0  0  0  0  0
   -3.4221   -1.6993    1.2859 C   0  0  0  0  0  0  0  0  0  0  0  0
    3.5599    1.3038    1.0579 C   0  0  0  0  0  0  0  0  0  0  0  0
    2.9123   -0.6069    2.3798 C   0  0  0  0  0  0  0  0  0  0  0  0
   -3.4955   -1.8699   -0.0930 C   0  0  0  0  0  0  0  0  0  0  0  0
   -2.3228   -1.0539    1.8444 C   0  0  0  0  0  0  0  0  0  0  0  0
    2.7645    0.8456    0.0064 C   0  0  0  0  0  0  0  0  0  0  0  0
    2.1168   -1.0655    1.3283 C   0  0  0  0  0  0  0  0  0  0  0  0
   -2.4664   -1.3984   -0.9115 C   0  0  0  0  0  0  0  0  0  0  0  0
   -1.2937   -0.5827    1.0246 C   0  0  0  0  0  0  0  0  0  0  0  0
    1.1854   -0.8448   -1.0158 C   0  0  0  0  0  0  0  0  0  0  0  0
    2.0216   -0.3362    0.1345 C   0  0  0  0  0  0  0  0  0  0  0  0
   -1.3416   -0.7507   -0.3672 C   0  0  0  0  0  0  0  0  0  0  0  0
   -0.2344   -0.2555   -1.3002 C   0  0  0  0  0  0  0  0  0  0  0  0
   -0.2461    1.1948   -1.6318 N   0  0  0  0  0  0  0  0  0  0  0  0
    0.2721    1.8868    0.3203 H   0  0  0  0  0  0  0  0  0  0  0  0
   -0.2294    3.1268   -0.8016 H   0  0  0  0  0  0  0  0  0  0  0  0
   -1.4441    2.0625   -0.0875 H   0  0  0  0  0  0  0  0  0  0  0  0
   -2.2691    1.3245   -2.3147 H   0  0  0  0  0  0  0  0  0  0  0  0
   -1.0700    0.9265   -3.5665 H   0  0  0  0  0  0  0  0  0  0  0  0
   -1.1714    2.5639   -2.9522 H   0  0  0  0  0  0  0  0  0  0  0  0
    4.2522    0.9346    3.0631 H   0  0  0  0  0  0  0  0  0  0  0  0
   -4.2222   -2.0639    1.9243 H   0  0  0  0  0  0  0  0  0  0  0  0
    4.1248    2.2254    0.9474 H   0  0  0  0  0  0  0  0  0  0  0  0
    2.9739   -1.1784    3.3021 H   0  0  0  0  0  0  0  0  0  0  0  0
   -4.3544   -2.3688   -0.5340 H   0  0  0  0  0  0  0  0  0  0  0  0
   -2.2649   -0.9103    2.9202 H   0  0  0  0  0  0  0  0  0  0  0  0
    2.7184    1.4197   -0.9172 H   0  0  0  0  0  0  0  0  0  0  0  0
    1.5680   -1.9976    1.4470 H   0  0  0  0  0  0  0  0  0  0  0  0
   -2.5504   -1.5415   -1.9869 H   0  0  0  0  0  0  0  0  0  0  0  0
   -0.4606   -0.0657    1.4923 H   0  0  0  0  0  0  0  0  0  0  0  0
    1.0892   -1.9356   -0.9133 H   0  0  0  0  0  0  0  0  0  0  0  0
    1.7902   -0.7126   -1.9257 H   0  0  0  0  0  0  0  0  0  0  0  0
   -0.4503   -0.7597   -2.2562 H   0  0  0  0  0  0  0  0  0  0  0  0
  1 17  1  0
  2 17  1  0
  3  5  2  0
  3  6  1  0
  4  7  2  0
  4  8  1  0
  5  9  1  0
  6 10  2  0
  7 11  1  0
  8 12  2  0
  9 14  2  0
 10 14  1  0
 11 15  2  0
 12 15  1  0
 13 14  1  0
 13 16  1  0
 15 16  1  0
 16 17  1  0
  1 18  1  0
  1 19  1  0
  1 20  1  0
  2 21  1  0
  2 22  1  0
  2 23  1  0
  3 24  1  0
  4 25  1  0
  5 26  1  0
  6 27  1  0
  7 28  1  0
  8 29  1  0
  9 30  1  0
 10 31  1  0
 11 32  1  0
 12 33  1  0
 13 34  1  0
 13 35  1  0
 16 36  1  0
M  END
