
     RDKit          3D

 37 38  0  0  0  0  0  0  0  0999 V2000
   -0.7777   -1.5971    1.6655 C   0  0  0  0  0  0  0  0  0  0  0  0
   -0.9749    3.9599    0.5159 C   0  0  0  0  0  0  0  0  0  0  0  0
    4.0131   -1.2191   -0.2917 C   0  0  0  0  0  0  0  0  0  0  0  0
   -0.0421    3.6122   -0.4521 C   0  0  0  0  0  0  0  0  0  0  0  0
   -1.6909    2.9622    1.1691 C   0  0  0  0  0  0  0  0  0  0  0  0
    3.2400   -1.6951   -1.3467 C   0  0  0  0  0  0  0  0  0  0  0  0
    3.4297   -0.4243    0.6909 C   0  0  0  0  0  0  0  0  0  0  0  0
    0.1717    2.2668   -0.7586 C   0  0  0  0  0  0  0  0  0  0  0  0
   -1.4745    1.6130    0.8609 C   0  0  0  0  0  0  0  0  0  0  0  0
    1.8826   -1.3738   -1.4213 C   0  0  0  0  0  0  0  0  0  0  0  0
    2.0720   -0.1026    0.6176 C   0  0  0  0  0  0  0  0  0  0  0  0
   -2.5474   -1.4607   -0.1481 C   0  0  0  0  0  0  0  0  0  0  0  0
   -1.0288   -1.4232    0.1572 C   0  0  0  0  0  0  0  0  0  0  0  0
   -0.5328    1.2277   -0.1028 C   0  0  0  0  0  0  0  0  0  0  0  0
    1.2708   -0.5641   -0.4455 C   0  0  0  0  0  0  0  0  0  0  0  0
   -0.2412   -0.2309   -0.5211 C   0  0  0  0  0  0  0  0  0  0  0  0
   -2.8537   -1.8970   -1.5121 N   0  0  0  0  0  0  0  0  0  0  0  0
   -0.6004   -0.2833   -1.9289 O   0  0  0  0  0  0  0  0  0  0  0  0
    0.2770   -1.7954    1.8753 H   0  0  0  0  0  0  0  0  0  0  0  0
   -1.3319   -2.4634    2.0453 H   0  0  0  0  0  0  0  0  0  0  0  0
   -1.0812   -0.7352    2.2599 H   0  0  0  0  0  0  0  0  0  0  0  0
   -1.1471    5.0049    0.7590 H   0  0  0  0  0  0  0  0  0  0  0  0
    5.0691   -1.4688   -0.2346 H   0  0  0  0  0  0  0  0  0  0  0  0
    0.5214    4.3835   -0.9707 H   0  0  0  0  0  0  0  0  0  0  0  0
   -2.4276    3.2322    1.9224 H   0  0  0  0  0  0  0  0  0  0  0  0
    3.6912   -2.3179   -2.1146 H   0  0  0  0  0  0  0  0  0  0  0  0
    4.0303   -0.0535    1.5174 H   0  0  0  0  0  0  0  0  0  0  0  0
    0.9094    2.0222   -1.5241 H   0  0  0  0  0  0  0  0  0  0  0  0
   -2.0772    0.8911    1.3989 H   0  0  0  0  0  0  0  0  0  0  0  0
    1.2989   -1.7614   -2.2543 H   0  0  0  0  0  0  0  0  0  0  0  0
    1.6441    0.5154    1.4047 H   0  0  0  0  0  0  0  0  0  0  0  0
   -3.0122   -0.4847    0.0029 H   0  0  0  0  0  0  0  0  0  0  0  0
   -3.0544   -2.1526    0.5340 H   0  0  0  0  0  0  0  0  0  0  0  0
   -0.6353   -2.3506   -0.2904 H   0  0  0  0  0  0  0  0  0  0  0  0
   -2.1948   -1.4355   -2.1493 H   0  0  0  0  0  0  0  0  0  0  0  0
   -2.6275   -2.8881   -1.6022 H   0  0  0  0  0  0  0  0  0  0  0  0
   -1.1675    0.4872   -2.1111 H   0  0  0  0  0  0  0  0  0  0  0  0
  1 13  1  0
  2  4  2  0
  2  5  1  0
  3  6  2  0
  3  7  1  0
  4  8  1  0
  5  9  2  0
  6 10  1  0
  7 11  2  0
  8 14  2  0
  9 14  1  0
 10 15  2  0
 11 15  1  0
 12 13  1  0
 12 17  1  0
 13 16  1  0
 14 16  1  0
 15 16  1  0
 16 18  1  0
  1 19  1  0
  1 20  1  0
  1 21  1  0
  2 22  1  0
  3 23  1  0
  4 24  1  0
  5 25  1  0
  6 26  1  0
  7 27  1  0
  8 28  1  0
  9 29  1  0
 10 30  1  0
 11 31  1  0
 12 32  1  0
 12 33  1  0
 13 34  1  0
 17 35  1  0
 17 36  1  0
 18 37  1  0
M  END
