
     RDKit          3D

 42 43  0  0  0  0  0  0  0  0999 V2000
   -3.6527    1.0951   -0.9915 C   0  0  0  0  0  0  0  0  0  0  0  0
   -3.1502   -1.2801   -0.4407 C   0  0  0  0  0  0  0  0  0  0  0  0
   -3.8870    0.2818    1.3642 C   0  0  0  0  0  0  0  0  0  0  0  0
    3.5002    1.8769   -0.0140 C   0  0  0  0  0  0  0  0  0  0  0  0
    4.8242    1.4668   -0.1395 C   0  0  0  0  0  0  0  0  0  0  0  0
    2.4590    0.9414   -0.0334 C   0  0  0  0  0  0  0  0  0  0  0  0
    5.1458    0.1149   -0.2846 C   0  0  0  0  0  0  0  0  0  0  0  0
    0.4698   -1.7373   -0.1846 C   0  0  0  0  0  0  0  0  0  0  0  0
    2.8459   -2.6771   -0.3993 C   0  0  0  0  0  0  0  0  0  0  0  0
    1.9620   -1.6248   -0.2446 C   0  0  0  0  0  0  0  0  0  0  0  0
    2.7525   -0.4297   -0.1821 C   0  0  0  0  0  0  0  0  0  0  0  0
    4.0913   -0.8065   -0.3014 C   0  0  0  0  0  0  0  0  0  0  0  0
   -0.1102   -1.2391    1.1128 C   0  0  0  0  0  0  0  0  0  0  0  0
   -1.5416    0.5322    0.3140 C   0  0  0  0  0  0  0  0  0  0  0  0
   -1.3375    1.9874    0.7297 C   0  0  0  0  0  0  0  0  0  0  0  0
   -3.0416    0.1693    0.0812 C   0  0  0  0  0  0  0  0  0  0  0  0
   -0.9766    2.9522   -0.0418 N   0  0  0  0  0  0  0  0  0  0  0  0
    4.1178   -2.1752   -0.4230 N   0  0  0  0  0  0  0  0  0  0  0  0
   -0.9566   -0.3137    1.3620 N   0  0  0  0  0  0  0  0  0  0  0  0
    0.3123   -1.9243    2.1889 O   0  0  0  0  0  0  0  0  0  0  0  0
   -1.5455    2.3037    2.0070 O   0  0  0  0  0  0  0  0  0  0  0  0
   -3.6945    2.1358   -0.6532 H   0  0  0  0  0  0  0  0  0  0  0  0
   -4.6784    0.7947   -1.2351 H   0  0  0  0  0  0  0  0  0  0  0  0
   -3.0695    1.0639   -1.9187 H   0  0  0  0  0  0  0  0  0  0  0  0
   -2.8054   -2.0058    0.3033 H   0  0  0  0  0  0  0  0  0  0  0  0
   -2.5555   -1.4183   -1.3504 H   0  0  0  0  0  0  0  0  0  0  0  0
   -4.1880   -1.5364   -0.6840 H   0  0  0  0  0  0  0  0  0  0  0  0
   -3.4917   -0.3504    2.1662 H   0  0  0  0  0  0  0  0  0  0  0  0
   -4.9206   -0.0347    1.1800 H   0  0  0  0  0  0  0  0  0  0  0  0
   -3.9303    1.3112    1.7333 H   0  0  0  0  0  0  0  0  0  0  0  0
    3.2684    2.9326    0.1053 H   0  0  0  0  0  0  0  0  0  0  0  0
    5.6201    2.2076   -0.1200 H   0  0  0  0  0  0  0  0  0  0  0  0
    1.4364    1.2826    0.0774 H   0  0  0  0  0  0  0  0  0  0  0  0
    6.1790   -0.2030   -0.3776 H   0  0  0  0  0  0  0  0  0  0  0  0
    0.0437   -1.2211   -1.0464 H   0  0  0  0  0  0  0  0  0  0  0  0
    0.1682   -2.7877   -0.2862 H   0  0  0  0  0  0  0  0  0  0  0  0
    2.6745   -3.7419   -0.4873 H   0  0  0  0  0  0  0  0  0  0  0  0
   -1.0068    0.4282   -0.6350 H   0  0  0  0  0  0  0  0  0  0  0  0
   -0.8428    2.6088   -0.9988 H   0  0  0  0  0  0  0  0  0  0  0  0
    4.9603   -2.7248   -0.5175 H   0  0  0  0  0  0  0  0  0  0  0  0
   -0.0977   -1.5061    2.9651 H   0  0  0  0  0  0  0  0  0  0  0  0
   -1.3504    3.2505    2.0970 H   0  0  0  0  0  0  0  0  0  0  0  0
  1 16  1  0
  2 16  1  0
  3 16  1  0
  4  5  2  0
  4  6  1  0
  5  7  1  0
  6 11  2  0
  7 12  2  0
  8 10  1  0
  8 13  1  0
  9 10  2  0
  9 18  1  0
 10 11  1  0
 11 12  1  0
 12 18  1  0
 13 19  2  3
 13 20  1  0
 14 15  1  0
 14 16  1  0
 14 19  1  0
 15 17  2  3
 15 21  1  0
  1 22  1  0
  1 23  1  0
  1 24  1  0
  2 25  1  0
  2 26  1  0
  2 27  1  0
  3 28  1  0
  3 29  1  0
  3 30  1  0
  4 31  1  0
  5 32  1  0
  6 33  1  0
  7 34  1  0
  8 35  1  0
  8 36  1  0
  9 37  1  0
 14 38  1  0
 17 39  1  0
 18 40  1  0
 20 41  1  0
 21 42  1  0
M  END
