
     RDKit          3D

 43 44  0  0  0  0  0  0  0  0999 V2000
   -4.1530   -1.3750    2.1445 C   0  0  0  0  0  0  0  0  0  0  0  0
   -4.7341    0.1527   -0.8566 C   0  0  0  0  0  0  0  0  0  0  0  0
    6.4123    1.0649    1.5835 C   0  0  0  0  0  0  0  0  0  0  0  0
   -3.0859   -0.2868    2.0934 C   0  0  0  0  0  0  0  0  0  0  0  0
   -4.0560    0.9747    0.2319 C   0  0  0  0  0  0  0  0  0  0  0  0
    5.6000    0.1517    0.6829 C   0  0  0  0  0  0  0  0  0  0  0  0
    3.6386   -1.1770   -0.8854 C   0  0  0  0  0  0  0  0  0  0  0  0
    2.6397   -1.8003   -1.6456 C   0  0  0  0  0  0  0  0  0  0  0  0
   -1.0808    1.4172   -0.6414 C   0  0  0  0  0  0  0  0  0  0  0  0
   -1.6768    1.1477    0.7555 C   0  0  0  0  0  0  0  0  0  0  0  0
    2.0945    0.5546   -0.1980 C   0  0  0  0  0  0  0  0  0  0  0  0
   -0.7937   -0.7245   -2.0381 C   0  0  0  0  0  0  0  0  0  0  0  0
   -0.3096    0.2565   -1.1948 C   0  0  0  0  0  0  0  0  0  0  0  0
    3.3763   -0.0118   -0.1663 C   0  0  0  0  0  0  0  0  0  0  0  0
    1.0697   -0.0501   -0.9551 C   0  0  0  0  0  0  0  0  0  0  0  0
    1.3696   -1.2144   -1.6604 C   0  0  0  0  0  0  0  0  0  0  0  0
    0.2193   -1.6039   -2.3046 N   0  0  0  0  0  0  0  0  0  0  0  0
   -2.8696    0.2684    0.7450 N   0  0  0  0  0  0  0  0  0  0  0  0
    4.2757    0.6749    0.6061 O   0  0  0  0  0  0  0  0  0  0  0  0
   -5.1521   -0.9785    1.9413 H   0  0  0  0  0  0  0  0  0  0  0  0
   -4.1767   -1.8257    3.1423 H   0  0  0  0  0  0  0  0  0  0  0  0
   -3.9389   -2.1713    1.4240 H   0  0  0  0  0  0  0  0  0  0  0  0
   -5.6131    0.6855   -1.2339 H   0  0  0  0  0  0  0  0  0  0  0  0
   -5.0682   -0.8215   -0.4888 H   0  0  0  0  0  0  0  0  0  0  0  0
   -4.0587   -0.0148   -1.7017 H   0  0  0  0  0  0  0  0  0  0  0  0
    6.4277    2.0849    1.1853 H   0  0  0  0  0  0  0  0  0  0  0  0
    5.9652    1.1191    2.5817 H   0  0  0  0  0  0  0  0  0  0  0  0
    7.4413    0.7063    1.6764 H   0  0  0  0  0  0  0  0  0  0  0  0
   -2.1547   -0.7503    2.4435 H   0  0  0  0  0  0  0  0  0  0  0  0
   -3.3342    0.5078    2.8085 H   0  0  0  0  0  0  0  0  0  0  0  0
   -4.7734    1.2049    1.0294 H   0  0  0  0  0  0  0  0  0  0  0  0
   -3.7950    1.9465   -0.2051 H   0  0  0  0  0  0  0  0  0  0  0  0
    6.0594    0.1306   -0.3121 H   0  0  0  0  0  0  0  0  0  0  0  0
    5.5869   -0.8559    1.1143 H   0  0  0  0  0  0  0  0  0  0  0  0
    4.6209   -1.6380   -0.8792 H   0  0  0  0  0  0  0  0  0  0  0  0
    2.8512   -2.7079   -2.2013 H   0  0  0  0  0  0  0  0  0  0  0  0
   -1.8571    1.7181   -1.3544 H   0  0  0  0  0  0  0  0  0  0  0  0
   -0.4036    2.2778   -0.5639 H   0  0  0  0  0  0  0  0  0  0  0  0
   -0.8859    0.6977    1.3704 H   0  0  0  0  0  0  0  0  0  0  0  0
   -1.9290    2.1039    1.2335 H   0  0  0  0  0  0  0  0  0  0  0  0
    1.8945    1.4616    0.3643 H   0  0  0  0  0  0  0  0  0  0  0  0
   -1.7799   -0.8753   -2.4556 H   0  0  0  0  0  0  0  0  0  0  0  0
    0.1372   -2.4251   -2.8869 H   0  0  0  0  0  0  0  0  0  0  0  0
  1  4  1  0
  2  5  1  0
  3  6  1  0
  4 18  1  0
  5 18  1  0
  6 19  1  0
  7  8  2  0
  7 14  1  0
  8 16  1  0
  9 10  1  0
  9 13  1  0
 10 18  1  0
 11 14  2  0
 11 15  1  0
 12 13  2  0
 12 17  1  0
 13 15  1  0
 14 19  1  0
 15 16  2  0
 16 17  1  0
  1 20  1  0
  1 21  1  0
  1 22  1  0
  2 23  1  0
  2 24  1  0
  2 25  1  0
  3 26  1  0
  3 27  1  0
  3 28  1  0
  4 29  1  0
  4 30  1  0
  5 31  1  0
  5 32  1  0
  6 33  1  0
  6 34  1  0
  7 35  1  0
  8 36  1  0
  9 37  1  0
  9 38  1  0
 10 39  1  0
 10 40  1  0
 11 41  1  0
 12 42  1  0
 17 43  1  0
M  END
