
     RDKit          3D

 43 44  0  0  0  0  0  0  0  0999 V2000
   -1.2856    0.7979    2.6692 C   0  0  0  0  0  0  0  0  0  0  0  0
   -3.9889   -0.6648    1.0167 C   0  0  0  0  0  0  0  0  0  0  0  0
   -4.1807    0.5273   -1.1927 C   0  0  0  0  0  0  0  0  0  0  0  0
    5.6937    0.2347    1.5966 C   0  0  0  0  0  0  0  0  0  0  0  0
   -2.1701    1.7266    1.8474 C   0  0  0  0  0  0  0  0  0  0  0  0
    4.4917   -0.3799   -0.8951 C   0  0  0  0  0  0  0  0  0  0  0  0
    3.8549   -0.6799   -2.1070 C   0  0  0  0  0  0  0  0  0  0  0  0
   -0.8839   -0.4782   -0.4559 C   0  0  0  0  0  0  0  0  0  0  0  0
   -1.3571    0.9844   -0.3873 C   0  0  0  0  0  0  0  0  0  0  0  0
    2.3576   -0.2068    0.2320 C   0  0  0  0  0  0  0  0  0  0  0  0
    0.2933   -0.9490   -2.6932 C   0  0  0  0  0  0  0  0  0  0  0  0
   -3.7949    0.6671    0.2857 C   0  0  0  0  0  0  0  0  0  0  0  0
    0.3133   -0.6404   -1.3464 C   0  0  0  0  0  0  0  0  0  0  0  0
    3.7576   -0.1446    0.2664 C   0  0  0  0  0  0  0  0  0  0  0  0
    1.6894   -0.5057   -0.9731 C   0  0  0  0  0  0  0  0  0  0  0  0
    2.4571   -0.7353   -2.1137 C   0  0  0  0  0  0  0  0  0  0  0  0
    1.5848   -1.0028   -3.1421 N   0  0  0  0  0  0  0  0  0  0  0  0
   -2.4860    1.2892    0.4911 N   0  0  0  0  0  0  0  0  0  0  0  0
    4.2779    0.1551    1.4978 O   0  0  0  0  0  0  0  0  0  0  0  0
   -1.1968    1.1808    3.6915 H   0  0  0  0  0  0  0  0  0  0  0  0
   -0.2742    0.7416    2.2573 H   0  0  0  0  0  0  0  0  0  0  0  0
   -1.6947   -0.2140    2.7295 H   0  0  0  0  0  0  0  0  0  0  0  0
   -4.9895   -1.0666    0.8202 H   0  0  0  0  0  0  0  0  0  0  0  0
   -3.9076   -0.5391    2.1008 H   0  0  0  0  0  0  0  0  0  0  0  0
   -3.2656   -1.4223    0.7057 H   0  0  0  0  0  0  0  0  0  0  0  0
   -5.2273    0.2157   -1.2851 H   0  0  0  0  0  0  0  0  0  0  0  0
   -3.5722   -0.2157   -1.7159 H   0  0  0  0  0  0  0  0  0  0  0  0
   -4.0818    1.4851   -1.7154 H   0  0  0  0  0  0  0  0  0  0  0  0
    6.0899    1.0336    0.9612 H   0  0  0  0  0  0  0  0  0  0  0  0
    5.9430    0.4805    2.6334 H   0  0  0  0  0  0  0  0  0  0  0  0
    6.1608   -0.7274    1.3615 H   0  0  0  0  0  0  0  0  0  0  0  0
   -3.0928    1.9209    2.4085 H   0  0  0  0  0  0  0  0  0  0  0  0
   -1.6705    2.7017    1.7835 H   0  0  0  0  0  0  0  0  0  0  0  0
    5.5762   -0.3386   -0.8980 H   0  0  0  0  0  0  0  0  0  0  0  0
    4.4338   -0.8620   -3.0066 H   0  0  0  0  0  0  0  0  0  0  0  0
   -0.6401   -0.8568    0.5419 H   0  0  0  0  0  0  0  0  0  0  0  0
   -1.6820   -1.1201   -0.8429 H   0  0  0  0  0  0  0  0  0  0  0  0
   -0.5073    1.6236   -0.1099 H   0  0  0  0  0  0  0  0  0  0  0  0
   -1.6087    1.3187   -1.4025 H   0  0  0  0  0  0  0  0  0  0  0  0
    1.7908   -0.0239    1.1395 H   0  0  0  0  0  0  0  0  0  0  0  0
   -0.5323   -1.1329   -3.3679 H   0  0  0  0  0  0  0  0  0  0  0  0
   -4.5390    1.3591    0.7045 H   0  0  0  0  0  0  0  0  0  0  0  0
    1.8635   -1.2084   -4.0912 H   0  0  0  0  0  0  0  0  0  0  0  0
  1  5  1  0
  2 12  1  0
  3 12  1  0
  4 19  1  0
  5 18  1  0
  6  7  2  0
  6 14  1  0
  7 16  1  0
  8  9  1  0
  8 13  1  0
  9 18  1  0
 10 14  2  0
 10 15  1  0
 11 13  2  0
 11 17  1  0
 12 18  1  0
 13 15  1  0
 14 19  1  0
 15 16  2  0
 16 17  1  0
  1 20  1  0
  1 21  1  0
  1 22  1  0
  2 23  1  0
  2 24  1  0
  2 25  1  0
  3 26  1  0
  3 27  1  0
  3 28  1  0
  4 29  1  0
  4 30  1  0
  4 31  1  0
  5 32  1  0
  5 33  1  0
  6 34  1  0
  7 35  1  0
  8 36  1  0
  8 37  1  0
  9 38  1  0
  9 39  1  0
 10 40  1  0
 11 41  1  0
 12 42  1  0
 17 43  1  0
M  END
