
     RDKit          3D

 43 44  0  0  0  0  0  0  0  0999 V2000
   -4.6900    0.1318   -1.1898 C   0  0  0  0  0  0  0  0  0  0  0  0
   -1.8956   -2.6323    1.2337 C   0  0  0  0  0  0  0  0  0  0  0  0
    5.2638   -2.5788   -1.0769 C   0  0  0  0  0  0  0  0  0  0  0  0
   -4.7841    0.4046    0.3051 C   0  0  0  0  0  0  0  0  0  0  0  0
   -2.5937   -1.3583    1.7018 C   0  0  0  0  0  0  0  0  0  0  0  0
    4.7402    0.1321   -0.4366 C   0  0  0  0  0  0  0  0  0  0  0  0
    4.4359    1.4656   -0.1304 C   0  0  0  0  0  0  0  0  0  0  0  0
   -0.5632    1.0788   -0.3409 C   0  0  0  0  0  0  0  0  0  0  0  0
   -3.4351    0.7877    0.9323 C   0  0  0  0  0  0  0  0  0  0  0  0
   -1.0450    0.3513    0.9281 C   0  0  0  0  0  0  0  0  0  0  0  0
    2.3887   -0.4072   -0.6241 C   0  0  0  0  0  0  0  0  0  0  0  0
    1.1425    2.9446    0.1381 C   0  0  0  0  0  0  0  0  0  0  0  0
    0.8181    1.6393   -0.1776 C   0  0  0  0  0  0  0  0  0  0  0  0
    3.7329   -0.8002   -0.6822 C   0  0  0  0  0  0  0  0  0  0  0  0
    2.0532    0.9278   -0.3176 C   0  0  0  0  0  0  0  0  0  0  0  0
    3.0869    1.8314   -0.0781 C   0  0  0  0  0  0  0  0  0  0  0  0
    2.5062    3.0479    0.1928 N   0  0  0  0  0  0  0  0  0  0  0  0
   -2.3919   -0.2427    0.7583 N   0  0  0  0  0  0  0  0  0  0  0  0
    3.9206   -2.1224   -0.9877 O   0  0  0  0  0  0  0  0  0  0  0  0
   -4.2639    0.9900   -1.7192 H   0  0  0  0  0  0  0  0  0  0  0  0
   -5.6866   -0.0586   -1.6006 H   0  0  0  0  0  0  0  0  0  0  0  0
   -4.0700   -0.7455   -1.3982 H   0  0  0  0  0  0  0  0  0  0  0  0
   -2.1461   -3.4608    1.9046 H   0  0  0  0  0  0  0  0  0  0  0  0
   -2.2216   -2.9094    0.2254 H   0  0  0  0  0  0  0  0  0  0  0  0
   -0.8065   -2.5342    1.2274 H   0  0  0  0  0  0  0  0  0  0  0  0
    5.8062   -2.0580   -1.8730 H   0  0  0  0  0  0  0  0  0  0  0  0
    5.7791   -2.4799   -0.1158 H   0  0  0  0  0  0  0  0  0  0  0  0
    5.2390   -3.6425   -1.3327 H   0  0  0  0  0  0  0  0  0  0  0  0
   -5.4850    1.2330    0.4650 H   0  0  0  0  0  0  0  0  0  0  0  0
   -5.2203   -0.4660    0.8058 H   0  0  0  0  0  0  0  0  0  0  0  0
   -3.6572   -1.6073    1.7837 H   0  0  0  0  0  0  0  0  0  0  0  0
   -2.2599   -1.0894    2.7119 H   0  0  0  0  0  0  0  0  0  0  0  0
    5.7890   -0.1444   -0.4747 H   0  0  0  0  0  0  0  0  0  0  0  0
    5.2263    2.1847    0.0586 H   0  0  0  0  0  0  0  0  0  0  0  0
   -0.5712    0.3834   -1.1900 H   0  0  0  0  0  0  0  0  0  0  0  0
   -1.2442    1.8957   -0.6056 H   0  0  0  0  0  0  0  0  0  0  0  0
   -3.1290    1.7277    0.4586 H   0  0  0  0  0  0  0  0  0  0  0  0
   -3.5758    1.0185    1.9965 H   0  0  0  0  0  0  0  0  0  0  0  0
   -1.0254    1.0270    1.7943 H   0  0  0  0  0  0  0  0  0  0  0  0
   -0.3089   -0.4305    1.1479 H   0  0  0  0  0  0  0  0  0  0  0  0
    1.6059   -1.1355   -0.8166 H   0  0  0  0  0  0  0  0  0  0  0  0
    0.5172    3.8075    0.3252 H   0  0  0  0  0  0  0  0  0  0  0  0
    3.0184    3.8934    0.4010 H   0  0  0  0  0  0  0  0  0  0  0  0
  1  4  1  0
  2  5  1  0
  3 19  1  0
  4  9  1  0
  5 18  1  0
  6  7  2  0
  6 14  1  0
  7 16  1  0
  8 10  1  0
  8 13  1  0
  9 18  1  0
 10 18  1  0
 11 14  2  0
 11 15  1  0
 12 13  2  0
 12 17  1  0
 13 15  1  0
 14 19  1  0
 15 16  2  0
 16 17  1  0
  1 20  1  0
  1 21  1  0
  1 22  1  0
  2 23  1  0
  2 24  1  0
  2 25  1  0
  3 26  1  0
  3 27  1  0
  3 28  1  0
  4 29  1  0
  4 30  1  0
  5 31  1  0
  5 32  1  0
  6 33  1  0
  7 34  1  0
  8 35  1  0
  8 36  1  0
  9 37  1  0
  9 38  1  0
 10 39  1  0
 10 40  1  0
 11 41  1  0
 12 42  1  0
 17 43  1  0
M  END
