
     RDKit          3D

 43 44  0  0  0  0  0  0  0  0999 V2000
   -3.8327   -1.9273   -0.3433 C   0  0  0  0  0  0  0  0  0  0  0  0
   -3.2018    3.1812   -0.5108 C   0  0  0  0  0  0  0  0  0  0  0  0
   -2.3740   -2.2118   -0.0164 C   0  0  0  0  0  0  0  0  0  0  0  0
   -2.0439    2.3920    0.0851 C   0  0  0  0  0  0  0  0  0  0  0  0
    5.2605   -0.1290   -0.3002 C   0  0  0  0  0  0  0  0  0  0  0  0
    4.1991   -0.3059   -1.1843 C   0  0  0  0  0  0  0  0  0  0  0  0
    5.0048    0.0744    1.0509 C   0  0  0  0  0  0  0  0  0  0  0  0
    1.7643   -0.4515   -1.7383 C   0  0  0  0  0  0  0  0  0  0  0  0
    0.4152   -0.8030   -1.1140 C   0  0  0  0  0  0  0  0  0  0  0  0
   -1.7277   -1.2642    1.0133 C   0  0  0  0  0  0  0  0  0  0  0  0
   -2.2622    0.8799   -0.0769 C   0  0  0  0  0  0  0  0  0  0  0  0
    1.1779   -0.0138    1.1475 C   0  0  0  0  0  0  0  0  0  0  0  0
    2.8706   -0.2805   -0.7267 C   0  0  0  0  0  0  0  0  0  0  0  0
    0.1079    0.1534    0.0413 C   0  0  0  0  0  0  0  0  0  0  0  0
    2.6035   -0.0452    0.6385 C   0  0  0  0  0  0  0  0  0  0  0  0
    3.6912    0.1077    1.5139 C   0  0  0  0  0  0  0  0  0  0  0  0
   -1.2545    0.0696    0.6118 N   0  0  0  0  0  0  0  0  0  0  0  0
    3.5464    0.2916    2.8611 O   0  0  0  0  0  0  0  0  0  0  0  0
   -4.4231   -1.7810    0.5663 H   0  0  0  0  0  0  0  0  0  0  0  0
   -4.2621   -2.7749   -0.8883 H   0  0  0  0  0  0  0  0  0  0  0  0
   -3.9461   -1.0491   -0.9824 H   0  0  0  0  0  0  0  0  0  0  0  0
   -4.1449    2.9316   -0.0142 H   0  0  0  0  0  0  0  0  0  0  0  0
   -3.3093    2.9716   -1.5798 H   0  0  0  0  0  0  0  0  0  0  0  0
   -3.0296    4.2553   -0.3902 H   0  0  0  0  0  0  0  0  0  0  0  0
   -1.8013   -2.2560   -0.9452 H   0  0  0  0  0  0  0  0  0  0  0  0
   -2.3309   -3.2239    0.4075 H   0  0  0  0  0  0  0  0  0  0  0  0
   -1.1235    2.7175   -0.4091 H   0  0  0  0  0  0  0  0  0  0  0  0
   -1.9506    2.6434    1.1484 H   0  0  0  0  0  0  0  0  0  0  0  0
    6.2844   -0.1530   -0.6626 H   0  0  0  0  0  0  0  0  0  0  0  0
    4.4117   -0.4648   -2.2397 H   0  0  0  0  0  0  0  0  0  0  0  0
    5.8277    0.2038    1.7484 H   0  0  0  0  0  0  0  0  0  0  0  0
    2.0328   -1.2397   -2.4522 H   0  0  0  0  0  0  0  0  0  0  0  0
    1.6711    0.4853   -2.3021 H   0  0  0  0  0  0  0  0  0  0  0  0
    0.4479   -1.8394   -0.7556 H   0  0  0  0  0  0  0  0  0  0  0  0
   -0.3540   -0.7399   -1.8918 H   0  0  0  0  0  0  0  0  0  0  0  0
   -2.4436   -1.1202    1.8338 H   0  0  0  0  0  0  0  0  0  0  0  0
   -0.9023   -1.8121    1.4813 H   0  0  0  0  0  0  0  0  0  0  0  0
   -2.3108    0.6202   -1.1409 H   0  0  0  0  0  0  0  0  0  0  0  0
   -3.2461    0.6699    0.3600 H   0  0  0  0  0  0  0  0  0  0  0  0
    1.0626    0.8225    1.8491 H   0  0  0  0  0  0  0  0  0  0  0  0
    1.0228   -0.9429    1.7073 H   0  0  0  0  0  0  0  0  0  0  0  0
    0.2590    1.1680   -0.3458 H   0  0  0  0  0  0  0  0  0  0  0  0
    2.6137    0.1900    3.1036 H   0  0  0  0  0  0  0  0  0  0  0  0
  1  3  1  0
  2  4  1  0
  3 10  1  0
  4 11  1  0
  5  6  2  0
  5  7  1  0
  6 13  1  0
  7 16  2  0
  8  9  1  0
  8 13  1  0
  9 14  1  0
 10 17  1  0
 11 17  1  0
 12 14  1  0
 12 15  1  0
 13 15  2  0
 14 17  1  0
 15 16  1  0
 16 18  1  0
  1 19  1  0
  1 20  1  0
  1 21  1  0
  2 22  1  0
  2 23  1  0
  2 24  1  0
  3 25  1  0
  3 26  1  0
  4 27  1  0
  4 28  1  0
  5 29  1  0
  6 30  1  0
  7 31  1  0
  8 32  1  0
  8 33  1  0
  9 34  1  0
  9 35  1  0
 10 36  1  0
 10 37  1  0
 11 38  1  0
 11 39  1  0
 12 40  1  0
 12 41  1  0
 14 42  1  0
 18 43  1  0
M  END
