
     RDKit          3D

 43 43  0  0  0  0  0  0  0  0999 V2000
   -1.6311   -4.0086   -0.2919 C   0  0  0  0  0  0  0  0  0  0  0  0
    3.6580    0.9211   -0.3202 C   0  0  0  0  0  0  0  0  0  0  0  0
    3.8026   -1.4385   -1.1379 C   0  0  0  0  0  0  0  0  0  0  0  0
   -2.5119   -2.8016   -0.0074 C   0  0  0  0  0  0  0  0  0  0  0  0
   -1.7241   -1.5031    0.1907 C   0  0  0  0  0  0  0  0  0  0  0  0
   -2.0596    4.3963   -0.1538 C   0  0  0  0  0  0  0  0  0  0  0  0
   -1.7001    3.2225   -0.8130 C   0  0  0  0  0  0  0  0  0  0  0  0
   -2.0819    4.4314    1.2380 C   0  0  0  0  0  0  0  0  0  0  0  0
   -1.3568    2.0810   -0.0818 C   0  0  0  0  0  0  0  0  0  0  0  0
   -1.7384    3.2921    1.9692 C   0  0  0  0  0  0  0  0  0  0  0  0
   -0.8775   -1.5006    1.4676 C   0  0  0  0  0  0  0  0  0  0  0  0
    1.8731   -0.7927    0.3370 C   0  0  0  0  0  0  0  0  0  0  0  0
    2.8483   -0.3038   -0.7542 C   0  0  0  0  0  0  0  0  0  0  0  0
   -1.3610    2.1076    1.3165 C   0  0  0  0  0  0  0  0  0  0  0  0
   -0.0742   -0.2064    1.7146 C   0  0  0  0  0  0  0  0  0  0  0  0
   -1.0183    0.9267    2.1722 C   0  0  0  0  0  0  0  0  0  0  0  0
    0.8449    0.2094    0.6336 N   0  0  0  0  0  0  0  0  0  0  0  0
   -1.5207    0.8808    3.3010 O   0  0  0  0  0  0  0  0  0  0  0  0
   -1.0135   -4.2691    0.5723 H   0  0  0  0  0  0  0  0  0  0  0  0
   -0.9718   -3.8220   -1.1455 H   0  0  0  0  0  0  0  0  0  0  0  0
   -2.2523   -4.8787   -0.5278 H   0  0  0  0  0  0  0  0  0  0  0  0
    4.1996    0.7282    0.6120 H   0  0  0  0  0  0  0  0  0  0  0  0
    4.3922    1.1917   -1.0869 H   0  0  0  0  0  0  0  0  0  0  0  0
    3.0159    1.7939   -0.1681 H   0  0  0  0  0  0  0  0  0  0  0  0
    4.4123   -1.7512   -0.2834 H   0  0  0  0  0  0  0  0  0  0  0  0
    4.4786   -1.1245   -1.9403 H   0  0  0  0  0  0  0  0  0  0  0  0
    3.2460   -2.3113   -1.4955 H   0  0  0  0  0  0  0  0  0  0  0  0
   -3.1340   -3.0010    0.8727 H   0  0  0  0  0  0  0  0  0  0  0  0
   -3.1954   -2.6651   -0.8541 H   0  0  0  0  0  0  0  0  0  0  0  0
   -1.0930   -1.3284   -0.6878 H   0  0  0  0  0  0  0  0  0  0  0  0
   -2.4478   -0.6820    0.2381 H   0  0  0  0  0  0  0  0  0  0  0  0
   -2.3289    5.2812   -0.7251 H   0  0  0  0  0  0  0  0  0  0  0  0
   -1.6907    3.1913   -1.9000 H   0  0  0  0  0  0  0  0  0  0  0  0
   -2.3708    5.3421    1.7567 H   0  0  0  0  0  0  0  0  0  0  0  0
   -1.0967    1.1817   -0.6312 H   0  0  0  0  0  0  0  0  0  0  0  0
   -1.7681    3.3322    3.0568 H   0  0  0  0  0  0  0  0  0  0  0  0
   -1.5423   -1.6768    2.3236 H   0  0  0  0  0  0  0  0  0  0  0  0
   -0.1826   -2.3475    1.4531 H   0  0  0  0  0  0  0  0  0  0  0  0
    1.3990   -1.7125   -0.0225 H   0  0  0  0  0  0  0  0  0  0  0  0
    2.4345   -1.0388    1.2469 H   0  0  0  0  0  0  0  0  0  0  0  0
    2.2723   -0.0346   -1.6493 H   0  0  0  0  0  0  0  0  0  0  0  0
    0.5588   -0.3834    2.5971 H   0  0  0  0  0  0  0  0  0  0  0  0
    1.3075    1.0707    0.9292 H   0  0  0  0  0  0  0  0  0  0  0  0
  1  4  1  0
  2 13  1  0
  3 13  1  0
  4  5  1  0
  5 11  1  0
  6  7  2  0
  6  8  1  0
  7  9  1  0
  8 10  2  0
  9 14  2  0
 10 14  1  0
 11 15  1  0
 12 13  1  0
 12 17  1  0
 14 16  1  0
 15 16  1  0
 15 17  1  0
 16 18  2  0
  1 19  1  0
  1 20  1  0
  1 21  1  0
  2 22  1  0
  2 23  1  0
  2 24  1  0
  3 25  1  0
  3 26  1  0
  3 27  1  0
  4 28  1  0
  4 29  1  0
  5 30  1  0
  5 31  1  0
  6 32  1  0
  7 33  1  0
  8 34  1  0
  9 35  1  0
 10 36  1  0
 11 37  1  0
 11 38  1  0
 12 39  1  0
 12 40  1  0
 13 41  1  0
 15 42  1  0
 17 43  1  0
M  END
