
     RDKit          3D

 34 36  0  0  0  0  0  0  0  0999 V2000
    0.1393    1.0972   -3.6553 C   0  0  0  0  0  0  0  0  0  0  0  0
    0.9115   -3.6525    2.6454 C   0  0  0  0  0  0  0  0  0  0  0  0
   -0.4722   -3.4794    2.6300 C   0  0  0  0  0  0  0  0  0  0  0  0
    1.7277   -2.8350    1.8637 C   0  0  0  0  0  0  0  0  0  0  0  0
   -1.0418   -2.4808    1.8389 C   0  0  0  0  0  0  0  0  0  0  0  0
    1.1624   -1.8344    1.0703 C   0  0  0  0  0  0  0  0  0  0  0  0
    1.3801    3.0579   -0.0626 C   0  0  0  0  0  0  0  0  0  0  0  0
    0.8395    2.4934   -1.2242 C   0  0  0  0  0  0  0  0  0  0  0  0
    0.3662    1.3133    1.2481 C   0  0  0  0  0  0  0  0  0  0  0  0
    1.6743    3.0596    2.3715 C   0  0  0  0  0  0  0  0  0  0  0  0
   -2.6070    0.1513   -1.1775 C   0  0  0  0  0  0  0  0  0  0  0  0
    1.1341    2.4759    1.1787 C   0  0  0  0  0  0  0  0  0  0  0  0
   -0.2255   -1.6444    1.0683 C   0  0  0  0  0  0  0  0  0  0  0  0
   -0.1583    0.7291    0.0775 C   0  0  0  0  0  0  0  0  0  0  0  0
    0.0371    1.3371   -1.1782 C   0  0  0  0  0  0  0  0  0  0  0  0
   -1.8057    0.2521   -2.4682 C   0  0  0  0  0  0  0  0  0  0  0  0
   -0.8622   -0.5782    0.2308 C   0  0  0  0  0  0  0  0  0  0  0  0
    2.1153    3.5316    3.3350 N   0  0  0  0  0  0  0  0  0  0  0  0
   -2.0005   -0.8529   -0.3102 N   0  0  0  0  0  0  0  0  0  0  0  0
   -0.5358    0.8385   -2.3901 N   0  0  0  0  0  0  0  0  0  0  0  0
   -2.3001   -0.1082   -3.5407 O   0  0  0  0  0  0  0  0  0  0  0  0
    1.2254    1.0463   -3.5286 H   0  0  0  0  0  0  0  0  0  0  0  0
   -0.1591    2.0835   -4.0243 H   0  0  0  0  0  0  0  0  0  0  0  0
   -0.1374    0.3508   -4.4066 H   0  0  0  0  0  0  0  0  0  0  0  0
    1.3530   -4.4346    3.2586 H   0  0  0  0  0  0  0  0  0  0  0  0
   -1.1093   -4.1262    3.2281 H   0  0  0  0  0  0  0  0  0  0  0  0
    2.8046   -2.9854    1.8651 H   0  0  0  0  0  0  0  0  0  0  0  0
   -2.1227   -2.3579    1.8235 H   0  0  0  0  0  0  0  0  0  0  0  0
    1.8139   -1.2285    0.4471 H   0  0  0  0  0  0  0  0  0  0  0  0
    1.9798    3.9643   -0.1397 H   0  0  0  0  0  0  0  0  0  0  0  0
    1.0263    3.0109   -2.1628 H   0  0  0  0  0  0  0  0  0  0  0  0
    0.1806    0.8528    2.2186 H   0  0  0  0  0  0  0  0  0  0  0  0
   -3.6205   -0.1780   -1.4326 H   0  0  0  0  0  0  0  0  0  0  0  0
   -2.7132    1.1309   -0.6979 H   0  0  0  0  0  0  0  0  0  0  0  0
  1 20  1  0
  2  3  2  0
  2  4  1  0
  3  5  1  0
  4  6  2  0
  5 13  2  0
  6 13  1  0
  7  8  2  0
  7 12  1  0
  8 15  1  0
  9 12  2  0
  9 14  1  0
 10 12  1  0
 10 18  3  0
 11 16  1  0
 11 19  1  0
 13 17  1  0
 14 15  2  0
 14 17  1  0
 15 20  1  0
 16 20  1  0
 16 21  2  0
 17 19  2  0
  1 22  1  0
  1 23  1  0
  1 24  1  0
  2 25  1  0
  3 26  1  0
  4 27  1  0
  5 28  1  0
  6 29  1  0
  7 30  1  0
  8 31  1  0
  9 32  1  0
 11 33  1  0
 11 34  1  0
M  END
