
     RDKit          3D

 39 41  0  0  0  0  0  0  0  0999 V2000
    3.3718    0.6960   -2.1812 C   0  0  0  0  0  0  0  0  0  0  0  0
   -4.2144   -1.4607    1.1085 C   0  0  0  0  0  0  0  0  0  0  0  0
   -3.4728   -0.6620    1.9764 C   0  0  0  0  0  0  0  0  0  0  0  0
   -3.7415   -1.7200   -0.1765 C   0  0  0  0  0  0  0  0  0  0  0  0
   -2.2546   -0.1224    1.5610 C   0  0  0  0  0  0  0  0  0  0  0  0
   -2.5240   -1.1813   -0.5964 C   0  0  0  0  0  0  0  0  0  0  0  0
    2.8534   -2.6710    0.4071 C   0  0  0  0  0  0  0  0  0  0  0  0
    3.0728   -1.4971   -0.3125 C   0  0  0  0  0  0  0  0  0  0  0  0
    0.5985   -1.9474    0.8536 C   0  0  0  0  0  0  0  0  0  0  0  0
    1.1304    1.9688    0.6429 C   0  0  0  0  0  0  0  0  0  0  0  0
   -1.7625   -0.3724    0.2662 C   0  0  0  0  0  0  0  0  0  0  0  0
    1.6203   -2.8848    1.0000 C   0  0  0  0  0  0  0  0  0  0  0  0
    0.7845   -0.7559    0.1111 C   0  0  0  0  0  0  0  0  0  0  0  0
    2.0666   -0.5188   -0.4450 C   0  0  0  0  0  0  0  0  0  0  0  0
    2.0087    1.9585   -0.6102 C   0  0  0  0  0  0  0  0  0  0  0  0
   -0.4049    0.1830   -0.2027 C   0  0  0  0  0  0  0  0  0  0  0  0
   -1.0586    2.5705   -0.1443 C   0  0  0  0  0  0  0  0  0  0  0  0
    1.3434   -4.3235    1.9011 Cl  0  0  0  0  0  0  0  0  0  0  0  0
   -1.0192    3.7923    0.2352 N   0  0  0  0  0  0  0  0  0  0  0  0
    2.3893    0.7034   -1.1062 N   0  0  0  0  0  0  0  0  0  0  0  0
   -0.2307    1.5658    0.2822 N   0  0  0  0  0  0  0  0  0  0  0  0
    2.3858    3.0104   -1.1339 O   0  0  0  0  0  0  0  0  0  0  0  0
   -1.9729    2.2123   -1.0526 O   0  0  0  0  0  0  0  0  0  0  0  0
    3.1952    1.5325   -2.8651 H   0  0  0  0  0  0  0  0  0  0  0  0
    3.3005   -0.2285   -2.7628 H   0  0  0  0  0  0  0  0  0  0  0  0
    4.3734    0.8063   -1.7538 H   0  0  0  0  0  0  0  0  0  0  0  0
   -5.1634   -1.8792    1.4332 H   0  0  0  0  0  0  0  0  0  0  0  0
   -3.8429   -0.4563    2.9775 H   0  0  0  0  0  0  0  0  0  0  0  0
   -4.3225   -2.3415   -0.8530 H   0  0  0  0  0  0  0  0  0  0  0  0
   -1.6876    0.5010    2.2500 H   0  0  0  0  0  0  0  0  0  0  0  0
   -2.1714   -1.3942   -1.6033 H   0  0  0  0  0  0  0  0  0  0  0  0
    3.6524   -3.4000    0.5122 H   0  0  0  0  0  0  0  0  0  0  0  0
    4.0671   -1.3413   -0.7240 H   0  0  0  0  0  0  0  0  0  0  0  0
   -0.3604   -2.1796    1.3118 H   0  0  0  0  0  0  0  0  0  0  0  0
    1.5551    1.3285    1.4243 H   0  0  0  0  0  0  0  0  0  0  0  0
    1.1620    2.9779    1.0719 H   0  0  0  0  0  0  0  0  0  0  0  0
   -0.4446    0.2209   -1.3021 H   0  0  0  0  0  0  0  0  0  0  0  0
   -1.7212    4.3639   -0.2284 H   0  0  0  0  0  0  0  0  0  0  0  0
   -2.5609    2.9460   -1.2721 H   0  0  0  0  0  0  0  0  0  0  0  0
  1 20  1  0
  2  3  2  0
  2  4  1  0
  3  5  1  0
  4  6  2  0
  5 11  2  0
  6 11  1  0
  7  8  2  0
  7 12  1  0
  8 14  1  0
  9 12  2  0
  9 13  1  0
 10 15  1  0
 10 21  1  0
 11 16  1  0
 12 18  1  0
 13 14  2  0
 13 16  1  0
 14 20  1  0
 15 20  1  0
 15 22  2  0
 16 21  1  0
 17 19  2  3
 17 21  1  0
 17 23  1  0
  1 24  1  0
  1 25  1  0
  1 26  1  0
  2 27  1  0
  3 28  1  0
  4 29  1  0
  5 30  1  0
  6 31  1  0
  7 32  1  0
  8 33  1  0
  9 34  1  0
 10 35  1  0
 10 36  1  0
 16 37  1  0
 19 38  1  0
 23 39  1  0
M  END
