
     RDKit          3D

 38 40  0  0  0  0  0  0  0  0999 V2000
   -0.0805   -1.7924    1.8823 C   0  0  0  0  0  0  0  0  0  0  0  0
   -5.8794    1.5344   -0.6995 C   0  0  0  0  0  0  0  0  0  0  0  0
   -5.7754    0.9718    0.5714 C   0  0  0  0  0  0  0  0  0  0  0  0
   -4.8810    1.3077   -1.6447 C   0  0  0  0  0  0  0  0  0  0  0  0
   -4.6740    0.1779    0.8978 C   0  0  0  0  0  0  0  0  0  0  0  0
   -3.7798    0.5140   -1.3204 C   0  0  0  0  0  0  0  0  0  0  0  0
    2.8336   -1.2559   -0.2998 C   0  0  0  0  0  0  0  0  0  0  0  0
    4.0683   -1.3723   -0.9505 C   0  0  0  0  0  0  0  0  0  0  0  0
    3.2095    1.1280    0.0484 C   0  0  0  0  0  0  0  0  0  0  0  0
   -2.4715   -0.9206    0.2988 C   0  0  0  0  0  0  0  0  0  0  0  0
    6.3575    1.2360   -1.5178 C   0  0  0  0  0  0  0  0  0  0  0  0
   -0.0371   -0.8623    0.6700 C   0  0  0  0  0  0  0  0  0  0  0  0
   -3.6675   -0.0655   -0.0477 C   0  0  0  0  0  0  0  0  0  0  0  0
    2.3958   -0.0072    0.1937 C   0  0  0  0  0  0  0  0  0  0  0  0
    4.8352   -0.2356   -1.0844 C   0  0  0  0  0  0  0  0  0  0  0  0
    4.4184    0.9799   -0.5972 C   0  0  0  0  0  0  0  0  0  0  0  0
    1.0906    0.1609    0.8996 C   0  0  0  0  0  0  0  0  0  0  0  0
   -1.2783   -0.1000    0.4534 N   0  0  0  0  0  0  0  0  0  0  0  0
    0.9501    1.1157    1.6679 O   0  0  0  0  0  0  0  0  0  0  0  0
    6.0534   -0.1655   -1.6830 O   0  0  0  0  0  0  0  0  0  0  0  0
    5.3228    1.9682   -0.8292 O   0  0  0  0  0  0  0  0  0  0  0  0
   -0.3985   -1.2581    2.7849 H   0  0  0  0  0  0  0  0  0  0  0  0
    0.9097   -2.2135    2.0891 H   0  0  0  0  0  0  0  0  0  0  0  0
   -0.7651   -2.6309    1.7205 H   0  0  0  0  0  0  0  0  0  0  0  0
   -6.7349    2.1555   -0.9510 H   0  0  0  0  0  0  0  0  0  0  0  0
   -6.5503    1.1552    1.3110 H   0  0  0  0  0  0  0  0  0  0  0  0
   -4.9550    1.7542   -2.6326 H   0  0  0  0  0  0  0  0  0  0  0  0
   -4.6055   -0.2469    1.8964 H   0  0  0  0  0  0  0  0  0  0  0  0
   -2.9976    0.3548   -2.0595 H   0  0  0  0  0  0  0  0  0  0  0  0
    2.2391   -2.1562   -0.1746 H   0  0  0  0  0  0  0  0  0  0  0  0
    4.4163   -2.3257   -1.3332 H   0  0  0  0  0  0  0  0  0  0  0  0
    2.9018    2.0980    0.4274 H   0  0  0  0  0  0  0  0  0  0  0  0
   -2.3325   -1.6592   -0.5005 H   0  0  0  0  0  0  0  0  0  0  0  0
   -2.6864   -1.4791    1.2169 H   0  0  0  0  0  0  0  0  0  0  0  0
    6.5034    1.6821   -2.5083 H   0  0  0  0  0  0  0  0  0  0  0  0
    7.2901    1.3277   -0.9494 H   0  0  0  0  0  0  0  0  0  0  0  0
    0.1604   -1.4352   -0.2406 H   0  0  0  0  0  0  0  0  0  0  0  0
   -1.4057    0.5605    1.2247 H   0  0  0  0  0  0  0  0  0  0  0  0
  1 12  1  0
  2  3  2  0
  2  4  1  0
  3  5  1  0
  4  6  2  0
  5 13  2  0
  6 13  1  0
  7  8  2  0
  7 14  1  0
  8 15  1  0
  9 14  2  0
  9 16  1  0
 10 13  1  0
 10 18  1  0
 11 20  1  0
 11 21  1  0
 12 17  1  0
 12 18  1  0
 14 17  1  0
 15 16  2  0
 15 20  1  0
 16 21  1  0
 17 19  2  0
  1 22  1  0
  1 23  1  0
  1 24  1  0
  2 25  1  0
  3 26  1  0
  4 27  1  0
  5 28  1  0
  6 29  1  0
  7 30  1  0
  8 31  1  0
  9 32  1  0
 10 33  1  0
 10 34  1  0
 11 35  1  0
 11 36  1  0
 12 37  1  0
 18 38  1  0
M  END
