
     RDKit          3D

 41 42  0  0  0  0  0  0  0  0999 V2000
   -2.0357    3.2642   -1.5245 C   0  0  0  0  0  0  0  0  0  0  0  0
   -4.6889   -2.2459    2.6451 C   0  0  0  0  0  0  0  0  0  0  0  0
    6.0113   -0.6552    0.0089 C   0  0  0  0  0  0  0  0  0  0  0  0
    6.3799   -1.2828   -1.1806 C   0  0  0  0  0  0  0  0  0  0  0  0
    4.7024   -0.1982    0.1849 C   0  0  0  0  0  0  0  0  0  0  0  0
    5.4390   -1.4520   -2.1945 C   0  0  0  0  0  0  0  0  0  0  0  0
   -0.7037   -0.4743   -0.1261 C   0  0  0  0  0  0  0  0  0  0  0  0
    0.3711    0.1344    0.7882 C   0  0  0  0  0  0  0  0  0  0  0  0
   -2.9344   -0.7314    1.0224 C   0  0  0  0  0  0  0  0  0  0  0  0
   -3.8009    1.7495    0.0823 C   0  0  0  0  0  0  0  0  0  0  0  0
    2.3345    0.1419   -0.6529 C   0  0  0  0  0  0  0  0  0  0  0  0
   -2.0873    0.0471    0.2089 C   0  0  0  0  0  0  0  0  0  0  0  0
    3.7429   -0.3693   -0.8256 C   0  0  0  0  0  0  0  0  0  0  0  0
   -4.6351    0.9638    0.8858 C   0  0  0  0  0  0  0  0  0  0  0  0
    4.1360   -0.9945   -2.0121 C   0  0  0  0  0  0  0  0  0  0  0  0
   -2.5251    1.2996   -0.2583 C   0  0  0  0  0  0  0  0  0  0  0  0
   -4.2128   -0.2837    1.3662 C   0  0  0  0  0  0  0  0  0  0  0  0
   -6.2047    1.5890    1.2671 Cl  0  0  0  0  0  0  0  0  0  0  0  0
    3.2522   -1.1660   -3.0062 F   0  0  0  0  0  0  0  0  0  0  0  0
    1.7184   -0.4001    0.5617 N   0  0  0  0  0  0  0  0  0  0  0  0
   -1.6312    1.9932   -1.0306 O   0  0  0  0  0  0  0  0  0  0  0  0
   -5.0970   -0.9784    2.1488 O   0  0  0  0  0  0  0  0  0  0  0  0
   -2.9036    3.1725   -2.1857 H   0  0  0  0  0  0  0  0  0  0  0  0
   -2.2332    3.9616   -0.7037 H   0  0  0  0  0  0  0  0  0  0  0  0
   -1.2092    3.6711   -2.1149 H   0  0  0  0  0  0  0  0  0  0  0  0
   -3.8180   -2.1508    3.3019 H   0  0  0  0  0  0  0  0  0  0  0  0
   -5.5118   -2.6520    3.2413 H   0  0  0  0  0  0  0  0  0  0  0  0
   -4.4943   -2.9464    1.8265 H   0  0  0  0  0  0  0  0  0  0  0  0
    6.7423   -0.5199    0.8025 H   0  0  0  0  0  0  0  0  0  0  0  0
    7.3982   -1.6375   -1.3167 H   0  0  0  0  0  0  0  0  0  0  0  0
    4.4247    0.2898    1.1177 H   0  0  0  0  0  0  0  0  0  0  0  0
    5.7110   -1.9356   -3.1272 H   0  0  0  0  0  0  0  0  0  0  0  0
   -0.6937   -1.5682   -0.0313 H   0  0  0  0  0  0  0  0  0  0  0  0
   -0.4910   -0.2715   -1.1823 H   0  0  0  0  0  0  0  0  0  0  0  0
    0.1094   -0.0884    1.8303 H   0  0  0  0  0  0  0  0  0  0  0  0
    0.3814    1.2289    0.7159 H   0  0  0  0  0  0  0  0  0  0  0  0
   -2.5651   -1.6893    1.3758 H   0  0  0  0  0  0  0  0  0  0  0  0
   -4.1746    2.7081   -0.2608 H   0  0  0  0  0  0  0  0  0  0  0  0
    2.3794    1.2370   -0.6037 H   0  0  0  0  0  0  0  0  0  0  0  0
    1.7342   -0.1204   -1.5304 H   0  0  0  0  0  0  0  0  0  0  0  0
    1.6828   -1.4159    0.4855 H   0  0  0  0  0  0  0  0  0  0  0  0
  1 21  1  0
  2 22  1  0
  3  4  2  0
  3  5  1  0
  4  6  1  0
  5 13  2  0
  6 15  2  0
  7  8  1  0
  7 12  1  0
  8 20  1  0
  9 12  2  0
  9 17  1  0
 10 14  1  0
 10 16  2  0
 11 13  1  0
 11 20  1  0
 12 16  1  0
 13 15  1  0
 14 17  2  0
 14 18  1  0
 15 19  1  0
 16 21  1  0
 17 22  1  0
  1 23  1  0
  1 24  1  0
  1 25  1  0
  2 26  1  0
  2 27  1  0
  2 28  1  0
  3 29  1  0
  4 30  1  0
  5 31  1  0
  6 32  1  0
  7 33  1  0
  7 34  1  0
  8 35  1  0
  8 36  1  0
  9 37  1  0
 10 38  1  0
 11 39  1  0
 11 40  1  0
 20 41  1  0
M  END
