
     RDKit          3D

 41 42  0  0  0  0  0  0  0  0999 V2000
   -1.6301    0.8800    3.1784 C   0  0  0  0  0  0  0  0  0  0  0  0
    0.0596   -2.2903   -3.2775 C   0  0  0  0  0  0  0  0  0  0  0  0
    4.8368    1.4498    0.6053 C   0  0  0  0  0  0  0  0  0  0  0  0
    4.2652    1.0721   -0.6081 C   0  0  0  0  0  0  0  0  0  0  0  0
    4.4645    0.8017    1.7816 C   0  0  0  0  0  0  0  0  0  0  0  0
    3.3207    0.0455   -0.6458 C   0  0  0  0  0  0  0  0  0  0  0  0
    3.5192   -0.2250    1.7459 C   0  0  0  0  0  0  0  0  0  0  0  0
   -3.5113    0.2119   -0.5310 C   0  0  0  0  0  0  0  0  0  0  0  0
   -3.5111    1.6981   -0.9035 C   0  0  0  0  0  0  0  0  0  0  0  0
    1.9093   -1.7234    0.4861 C   0  0  0  0  0  0  0  0  0  0  0  0
   -1.4065   -0.9618   -1.2629 C   0  0  0  0  0  0  0  0  0  0  0  0
   -0.2041   -0.5617    1.2116 C   0  0  0  0  0  0  0  0  0  0  0  0
    2.9367   -0.6136    0.5310 C   0  0  0  0  0  0  0  0  0  0  0  0
   -2.1130   -0.2948   -0.2443 C   0  0  0  0  0  0  0  0  0  0  0  0
    0.5014   -1.2396    0.1965 C   0  0  0  0  0  0  0  0  0  0  0  0
   -1.4997   -0.0845    1.0005 C   0  0  0  0  0  0  0  0  0  0  0  0
   -0.1069   -1.4334   -1.0546 C   0  0  0  0  0  0  0  0  0  0  0  0
   -4.8637    2.1654   -1.2131 N   0  0  0  0  0  0  0  0  0  0  0  0
   -2.2458    0.5915    1.9297 O   0  0  0  0  0  0  0  0  0  0  0  0
    0.6437   -2.0842   -1.9978 O   0  0  0  0  0  0  0  0  0  0  0  0
   -0.7413    1.5060    3.0467 H   0  0  0  0  0  0  0  0  0  0  0  0
   -1.3919   -0.0399    3.7222 H   0  0  0  0  0  0  0  0  0  0  0  0
   -2.3476    1.4452    3.7811 H   0  0  0  0  0  0  0  0  0  0  0  0
    0.7920   -2.8166   -3.8973 H   0  0  0  0  0  0  0  0  0  0  0  0
   -0.8316   -2.9225   -3.2078 H   0  0  0  0  0  0  0  0  0  0  0  0
   -0.1655   -1.3371   -3.7671 H   0  0  0  0  0  0  0  0  0  0  0  0
    5.5723    2.2492    0.6337 H   0  0  0  0  0  0  0  0  0  0  0  0
    4.5532    1.5768   -1.5263 H   0  0  0  0  0  0  0  0  0  0  0  0
    4.9114    1.0957    2.7276 H   0  0  0  0  0  0  0  0  0  0  0  0
    2.8794   -0.2394   -1.5989 H   0  0  0  0  0  0  0  0  0  0  0  0
    3.2412   -0.7207    2.6729 H   0  0  0  0  0  0  0  0  0  0  0  0
   -3.9531   -0.3766   -1.3462 H   0  0  0  0  0  0  0  0  0  0  0  0
   -4.1539    0.0304    0.3401 H   0  0  0  0  0  0  0  0  0  0  0  0
   -3.1037    2.3029   -0.0856 H   0  0  0  0  0  0  0  0  0  0  0  0
   -2.8731    1.8665   -1.7787 H   0  0  0  0  0  0  0  0  0  0  0  0
    2.2374   -2.4759   -0.2413 H   0  0  0  0  0  0  0  0  0  0  0  0
    1.8958   -2.2613    1.4440 H   0  0  0  0  0  0  0  0  0  0  0  0
   -1.9024   -1.0958   -2.2195 H   0  0  0  0  0  0  0  0  0  0  0  0
    0.2960   -0.4159    2.1641 H   0  0  0  0  0  0  0  0  0  0  0  0
   -5.4493    2.0597   -0.3847 H   0  0  0  0  0  0  0  0  0  0  0  0
   -4.8302    3.1658   -1.4068 H   0  0  0  0  0  0  0  0  0  0  0  0
  1 19  1  0
  2 20  1  0
  3  4  2  0
  3  5  1  0
  4  6  1  0
  5  7  2  0
  6 13  2  0
  7 13  1  0
  8  9  1  0
  8 14  1  0
  9 18  1  0
 10 13  1  0
 10 15  1  0
 11 14  2  0
 11 17  1  0
 12 15  1  0
 12 16  2  0
 14 16  1  0
 15 17  2  0
 16 19  1  0
 17 20  1  0
  1 21  1  0
  1 22  1  0
  1 23  1  0
  2 24  1  0
  2 25  1  0
  2 26  1  0
  3 27  1  0
  4 28  1  0
  5 29  1  0
  6 30  1  0
  7 31  1  0
  8 32  1  0
  8 33  1  0
  9 34  1  0
  9 35  1  0
 10 36  1  0
 10 37  1  0
 11 38  1  0
 12 39  1  0
 18 40  1  0
 18 41  1  0
M  END
