
     RDKit          3D

 42 46  0  0  0  0  0  0  0  0999 V2000
   -3.6683   -0.0411    0.4217 C   0  0  0  0  0  0  0  0  0  0  0  0
    1.2697   -2.9731   -1.1068 C   0  0  0  0  0  0  0  0  0  0  0  0
   -0.2032    1.8163   -1.5529 C   0  0  0  0  0  0  0  0  0  0  0  0
    2.5212   -3.0654   -0.4377 C   0  0  0  0  0  0  0  0  0  0  0  0
    0.5015    2.9879   -0.7626 C   0  0  0  0  0  0  0  0  0  0  0  0
   -0.5795   -0.0290    1.7022 C   0  0  0  0  0  0  0  0  0  0  0  0
   -1.6972   -1.0649    1.4028 C   0  0  0  0  0  0  0  0  0  0  0  0
   -0.8519   -1.5651   -1.6175 C   0  0  0  0  0  0  0  0  0  0  0  0
    0.4337   -1.8770   -0.8962 C   0  0  0  0  0  0  0  0  0  0  0  0
   -0.8437    0.8465   -0.5610 C   0  0  0  0  0  0  0  0  0  0  0  0
   -1.6895   -0.3706   -1.0098 C   0  0  0  0  0  0  0  0  0  0  0  0
    2.9719   -2.0423    0.4057 C   0  0  0  0  0  0  0  0  0  0  0  0
    1.2854    2.5564    0.5302 C   0  0  0  0  0  0  0  0  0  0  0  0
    0.8914   -0.9420   -0.0013 C   0  0  0  0  0  0  0  0  0  0  0  0
    2.1496   -0.9641    0.5951 C   0  0  0  0  0  0  0  0  0  0  0  0
    1.5126    1.0617    0.4098 C   0  0  0  0  0  0  0  0  0  0  0  0
    0.1877    0.2978    0.4072 C   0  0  0  0  0  0  0  0  0  0  0  0
   -2.4855   -0.8622    0.1619 N   0  0  0  0  0  0  0  0  0  0  0  0
    4.2086   -2.1076    0.9617 O   0  0  0  0  0  0  0  0  0  0  0  0
    0.5200    2.8806    1.6857 O   0  0  0  0  0  0  0  0  0  0  0  0
    2.4364    0.2671    1.1980 O   0  0  0  0  0  0  0  0  0  0  0  0
   -3.4263    0.9520    0.8124 H   0  0  0  0  0  0  0  0  0  0  0  0
   -4.3196   -0.5380    1.1498 H   0  0  0  0  0  0  0  0  0  0  0  0
   -4.2660    0.0804   -0.4883 H   0  0  0  0  0  0  0  0  0  0  0  0
    0.9779   -3.7614   -1.7968 H   0  0  0  0  0  0  0  0  0  0  0  0
    0.5201    1.3021   -2.1964 H   0  0  0  0  0  0  0  0  0  0  0  0
   -0.9630    2.2436   -2.2173 H   0  0  0  0  0  0  0  0  0  0  0  0
    3.1601   -3.9269   -0.6171 H   0  0  0  0  0  0  0  0  0  0  0  0
    1.2029    3.4667   -1.4567 H   0  0  0  0  0  0  0  0  0  0  0  0
   -0.2542    3.7385   -0.5008 H   0  0  0  0  0  0  0  0  0  0  0  0
   -1.0387    0.8773    2.1146 H   0  0  0  0  0  0  0  0  0  0  0  0
    0.0752   -0.4270    2.4875 H   0  0  0  0  0  0  0  0  0  0  0  0
   -2.3609   -1.1319    2.2749 H   0  0  0  0  0  0  0  0  0  0  0  0
   -1.2438   -2.0621    1.3407 H   0  0  0  0  0  0  0  0  0  0  0  0
   -1.4758   -2.4660   -1.6661 H   0  0  0  0  0  0  0  0  0  0  0  0
   -0.5899   -1.2961   -2.6490 H   0  0  0  0  0  0  0  0  0  0  0  0
   -1.5178    1.5198   -0.0113 H   0  0  0  0  0  0  0  0  0  0  0  0
   -2.3905   -0.0594   -1.7951 H   0  0  0  0  0  0  0  0  0  0  0  0
    2.2368    3.0930    0.6081 H   0  0  0  0  0  0  0  0  0  0  0  0
    2.0035    1.0328   -0.5872 H   0  0  0  0  0  0  0  0  0  0  0  0
    4.3016   -1.2979    1.4984 H   0  0  0  0  0  0  0  0  0  0  0  0
    0.4979    3.8506    1.7599 H   0  0  0  0  0  0  0  0  0  0  0  0
  1 18  1  0
  2  4  2  0
  2  9  1  0
  3  5  1  0
  3 10  1  0
  4 12  1  0
  5 13  1  0
  6  7  1  0
  6 17  1  0
  7 18  1  0
  8  9  1  0
  8 11  1  0
  9 14  2  0
 10 11  1  0
 10 17  1  0
 11 18  1  0
 12 15  2  0
 12 19  1  0
 13 16  1  0
 13 20  1  0
 14 15  1  0
 14 17  1  0
 15 21  1  0
 16 17  1  0
 16 21  1  0
  1 22  1  0
  1 23  1  0
  1 24  1  0
  2 25  1  0
  3 26  1  0
  3 27  1  0
  4 28  1  0
  5 29  1  0
  5 30  1  0
  6 31  1  0
  6 32  1  0
  7 33  1  0
  7 34  1  0
  8 35  1  0
  8 36  1  0
 10 37  1  0
 11 38  1  0
 13 39  1  0
 16 40  1  0
 19 41  1  0
 20 42  1  0
M  END
