
     RDKit          3D

 43 47  0  0  0  0  0  0  0  0999 V2000
    3.6332   -0.2736   -1.1523 C   0  0  0  0  0  0  0  0  0  0  0  0
   -0.8046    2.6482    1.7114 C   0  0  0  0  0  0  0  0  0  0  0  0
   -2.1526    2.8935    1.3724 C   0  0  0  0  0  0  0  0  0  0  0  0
   -1.4242   -1.9332    1.2065 C   0  0  0  0  0  0  0  0  0  0  0  0
    0.0887   -1.6987    1.3513 C   0  0  0  0  0  0  0  0  0  0  0  0
    0.5480    0.3763   -1.9628 C   0  0  0  0  0  0  0  0  0  0  0  0
    1.7763    1.2163   -1.5812 C   0  0  0  0  0  0  0  0  0  0  0  0
    1.3067    1.2080    1.4561 C   0  0  0  0  0  0  0  0  0  0  0  0
   -0.0900    1.6326    1.0706 C   0  0  0  0  0  0  0  0  0  0  0  0
   -2.7979    2.1025    0.4214 C   0  0  0  0  0  0  0  0  0  0  0  0
   -1.9145   -2.0673   -0.2356 C   0  0  0  0  0  0  0  0  0  0  0  0
    1.8933    0.0306    0.5861 C   0  0  0  0  0  0  0  0  0  0  0  0
   -0.7539    0.9222    0.0838 C   0  0  0  0  0  0  0  0  0  0  0  0
   -2.0866    1.1026   -0.1993 C   0  0  0  0  0  0  0  0  0  0  0  0
   -1.5212   -0.8688   -1.1285 C   0  0  0  0  0  0  0  0  0  0  0  0
   -0.1934   -0.1923   -0.7304 C   0  0  0  0  0  0  0  0  0  0  0  0
    0.7705   -0.9952    0.1486 C   0  0  0  0  0  0  0  0  0  0  0  0
    2.6489    0.6246   -0.5558 N   0  0  0  0  0  0  0  0  0  0  0  0
   -4.1144    2.3084    0.1501 O   0  0  0  0  0  0  0  0  0  0  0  0
   -1.3953   -3.2766   -0.7913 O   0  0  0  0  0  0  0  0  0  0  0  0
    1.3453   -2.0514   -0.6399 O   0  0  0  0  0  0  0  0  0  0  0  0
   -2.5827    0.1590   -1.0602 O   0  0  0  0  0  0  0  0  0  0  0  0
    3.1939   -1.0494   -1.7849 H   0  0  0  0  0  0  0  0  0  0  0  0
    4.2466   -0.7547   -0.3829 H   0  0  0  0  0  0  0  0  0  0  0  0
    4.3254    0.3018   -1.7781 H   0  0  0  0  0  0  0  0  0  0  0  0
   -0.3344    3.2457    2.4890 H   0  0  0  0  0  0  0  0  0  0  0  0
   -2.7030    3.6827    1.8776 H   0  0  0  0  0  0  0  0  0  0  0  0
   -1.9606   -1.1111    1.6951 H   0  0  0  0  0  0  0  0  0  0  0  0
   -1.6836   -2.8369    1.7724 H   0  0  0  0  0  0  0  0  0  0  0  0
    0.2448   -1.1449    2.2833 H   0  0  0  0  0  0  0  0  0  0  0  0
    0.5648   -2.6745    1.5180 H   0  0  0  0  0  0  0  0  0  0  0  0
    0.8648   -0.4494   -2.6128 H   0  0  0  0  0  0  0  0  0  0  0  0
   -0.1225    1.0007   -2.5684 H   0  0  0  0  0  0  0  0  0  0  0  0
    2.3498    1.4497   -2.4879 H   0  0  0  0  0  0  0  0  0  0  0  0
    1.4409    2.1964   -1.2203 H   0  0  0  0  0  0  0  0  0  0  0  0
    1.9773    2.0762    1.4268 H   0  0  0  0  0  0  0  0  0  0  0  0
    1.2765    0.8757    2.5017 H   0  0  0  0  0  0  0  0  0  0  0  0
   -3.0064   -2.1675   -0.2297 H   0  0  0  0  0  0  0  0  0  0  0  0
    2.6260   -0.4905    1.2169 H   0  0  0  0  0  0  0  0  0  0  0  0
   -1.4860   -1.2059   -2.1723 H   0  0  0  0  0  0  0  0  0  0  0  0
   -4.3462    1.6633   -0.5447 H   0  0  0  0  0  0  0  0  0  0  0  0
   -1.7060   -4.0150   -0.2406 H   0  0  0  0  0  0  0  0  0  0  0  0
    2.0582   -2.4600   -0.1208 H   0  0  0  0  0  0  0  0  0  0  0  0
  1 18  1  0
  2  3  2  0
  2  9  1  0
  3 10  1  0
  4  5  1  0
  4 11  1  0
  5 17  1  0
  6  7  1  0
  6 16  1  0
  7 18  1  0
  8  9  1  0
  8 12  1  0
  9 13  2  0
 10 14  2  0
 10 19  1  0
 11 15  1  0
 11 20  1  0
 12 17  1  0
 12 18  1  0
 13 14  1  0
 13 16  1  0
 14 22  1  0
 15 16  1  0
 15 22  1  0
 16 17  1  0
 17 21  1  0
  1 23  1  0
  1 24  1  0
  1 25  1  0
  2 26  1  0
  3 27  1  0
  4 28  1  0
  4 29  1  0
  5 30  1  0
  5 31  1  0
  6 32  1  0
  6 33  1  0
  7 34  1  0
  7 35  1  0
  8 36  1  0
  8 37  1  0
 11 38  1  0
 12 39  1  0
 15 40  1  0
 19 41  1  0
 20 42  1  0
 21 43  1  0
M  END
