
     RDKit          3D

 43 44  0  0  0  0  0  0  0  0999 V2000
   -3.2534   -2.7684   -0.1802 C   0  0  0  0  0  0  0  0  0  0  0  0
   -2.1587    4.3113   -2.0227 C   0  0  0  0  0  0  0  0  0  0  0  0
   -2.2099   -1.8594   -0.8145 C   0  0  0  0  0  0  0  0  0  0  0  0
   -1.4589    2.9598   -2.0587 C   0  0  0  0  0  0  0  0  0  0  0  0
    4.1345   -2.6011    1.8233 C   0  0  0  0  0  0  0  0  0  0  0  0
    4.5871   -1.2973    1.5952 C   0  0  0  0  0  0  0  0  0  0  0  0
    0.1433    0.7757    0.5015 C   0  0  0  0  0  0  0  0  0  0  0  0
   -2.5506   -0.3804   -0.5905 C   0  0  0  0  0  0  0  0  0  0  0  0
   -2.1970    1.9283   -1.1956 C   0  0  0  0  0  0  0  0  0  0  0  0
   -0.2407    0.4323   -0.9500 C   0  0  0  0  0  0  0  0  0  0  0  0
    1.8421   -1.9424    1.3551 C   0  0  0  0  0  0  0  0  0  0  0  0
    2.3428   -4.2687    1.9465 C   0  0  0  0  0  0  0  0  0  0  0  0
    2.5820    1.5719    0.6715 C   0  0  0  0  0  0  0  0  0  0  0  0
    2.7803   -2.9246    1.7061 C   0  0  0  0  0  0  0  0  0  0  0  0
    1.6106    0.5934    0.7530 C   0  0  0  0  0  0  0  0  0  0  0  0
    2.2753   -0.6208    1.1203 C   0  0  0  0  0  0  0  0  0  0  0  0
    3.6345   -0.3331    1.2462 C   0  0  0  0  0  0  0  0  0  0  0  0
    1.9891   -5.3567    2.1427 N   0  0  0  0  0  0  0  0  0  0  0  0
    3.7916    1.0051    0.9686 N   0  0  0  0  0  0  0  0  0  0  0  0
   -1.6671    0.5563   -1.3107 N   0  0  0  0  0  0  0  0  0  0  0  0
   -2.9906   -3.8182   -0.3441 H   0  0  0  0  0  0  0  0  0  0  0  0
   -4.2428   -2.5946   -0.6151 H   0  0  0  0  0  0  0  0  0  0  0  0
   -3.3167   -2.5983    0.8993 H   0  0  0  0  0  0  0  0  0  0  0  0
   -3.1795    4.2360   -2.4106 H   0  0  0  0  0  0  0  0  0  0  0  0
   -1.6151    5.0355   -2.6375 H   0  0  0  0  0  0  0  0  0  0  0  0
   -2.2063    4.7006   -1.0007 H   0  0  0  0  0  0  0  0  0  0  0  0
   -2.1544   -2.0731   -1.8884 H   0  0  0  0  0  0  0  0  0  0  0  0
   -1.2364   -2.1048   -0.3777 H   0  0  0  0  0  0  0  0  0  0  0  0
   -1.4067    2.6117   -3.0970 H   0  0  0  0  0  0  0  0  0  0  0  0
   -0.4321    3.0993   -1.7041 H   0  0  0  0  0  0  0  0  0  0  0  0
    4.8582   -3.3682    2.0960 H   0  0  0  0  0  0  0  0  0  0  0  0
    5.6400   -1.0493    1.6868 H   0  0  0  0  0  0  0  0  0  0  0  0
   -0.1244    1.8143    0.7290 H   0  0  0  0  0  0  0  0  0  0  0  0
   -0.4139    0.1468    1.2051 H   0  0  0  0  0  0  0  0  0  0  0  0
   -3.5782   -0.2296   -0.9474 H   0  0  0  0  0  0  0  0  0  0  0  0
   -2.5617   -0.1610    0.4843 H   0  0  0  0  0  0  0  0  0  0  0  0
   -3.2444    1.9221   -1.5255 H   0  0  0  0  0  0  0  0  0  0  0  0
   -2.2045    2.2584   -0.1493 H   0  0  0  0  0  0  0  0  0  0  0  0
    0.0999   -0.5836   -1.1849 H   0  0  0  0  0  0  0  0  0  0  0  0
    0.3546    1.0500   -1.6344 H   0  0  0  0  0  0  0  0  0  0  0  0
    0.7884   -2.1927    1.2634 H   0  0  0  0  0  0  0  0  0  0  0  0
    2.5133    2.6235    0.4250 H   0  0  0  0  0  0  0  0  0  0  0  0
    4.6760    1.4944    0.9826 H   0  0  0  0  0  0  0  0  0  0  0  0
  1  3  1  0
  2  4  1  0
  3  8  1  0
  4  9  1  0
  5  6  2  0
  5 14  1  0
  6 17  1  0
  7 10  1  0
  7 15  1  0
  8 20  1  0
  9 20  1  0
 10 20  1  0
 11 14  2  0
 11 16  1  0
 12 14  1  0
 12 18  3  0
 13 15  2  0
 13 19  1  0
 15 16  1  0
 16 17  2  0
 17 19  1  0
  1 21  1  0
  1 22  1  0
  1 23  1  0
  2 24  1  0
  2 25  1  0
  2 26  1  0
  3 27  1  0
  3 28  1  0
  4 29  1  0
  4 30  1  0
  5 31  1  0
  6 32  1  0
  7 33  1  0
  7 34  1  0
  8 35  1  0
  8 36  1  0
  9 37  1  0
  9 38  1  0
 10 39  1  0
 10 40  1  0
 11 41  1  0
 13 42  1  0
 19 43  1  0
M  END
