
     RDKit          3D

 44 45  0  0  0  0  0  0  0  0999 V2000
    3.6906    0.4286    0.0854 C   0  0  0  0  0  0  0  0  0  0  0  0
    3.6563   -1.6942    1.3960 C   0  0  0  0  0  0  0  0  0  0  0  0
    2.5432   -1.6188   -0.8339 C   0  0  0  0  0  0  0  0  0  0  0  0
   -2.0334   -3.4101   -1.3242 C   0  0  0  0  0  0  0  0  0  0  0  0
   -2.2695   -3.2054    0.0322 C   0  0  0  0  0  0  0  0  0  0  0  0
   -1.4235   -2.4119   -2.0790 C   0  0  0  0  0  0  0  0  0  0  0  0
   -2.6733    3.5480    0.6345 C   0  0  0  0  0  0  0  0  0  0  0  0
   -2.5504    3.2901   -0.8620 C   0  0  0  0  0  0  0  0  0  0  0  0
   -1.8924   -2.0031    0.6343 C   0  0  0  0  0  0  0  0  0  0  0  0
   -1.0449   -1.2093   -1.4766 C   0  0  0  0  0  0  0  0  0  0  0  0
   -1.8869    2.4282    1.3016 C   0  0  0  0  0  0  0  0  0  0  0  0
   -1.5788    2.1257   -0.9843 C   0  0  0  0  0  0  0  0  0  0  0  0
    0.6400    0.6307    0.3890 C   0  0  0  0  0  0  0  0  0  0  0  0
   -1.2669   -0.9865   -0.1079 C   0  0  0  0  0  0  0  0  0  0  0  0
   -0.8560    0.3116    0.5965 C   0  0  0  0  0  0  0  0  0  0  0  0
    1.5329   -0.3729    1.1099 C   0  0  0  0  0  0  0  0  0  0  0  0
    2.8490   -0.8070    0.4303 C   0  0  0  0  0  0  0  0  0  0  0  0
   -1.7956    1.4021    0.2627 N   0  0  0  0  0  0  0  0  0  0  0  0
    1.2334   -0.7736    2.2382 O   0  0  0  0  0  0  0  0  0  0  0  0
    3.2019    1.0592   -0.6649 H   0  0  0  0  0  0  0  0  0  0  0  0
    3.8587    1.0500    0.9725 H   0  0  0  0  0  0  0  0  0  0  0  0
    4.6690    0.1422   -0.3167 H   0  0  0  0  0  0  0  0  0  0  0  0
    4.6029   -2.0145    0.9461 H   0  0  0  0  0  0  0  0  0  0  0  0
    3.0963   -2.5958    1.6703 H   0  0  0  0  0  0  0  0  0  0  0  0
    3.8923   -1.1595    2.3235 H   0  0  0  0  0  0  0  0  0  0  0  0
    2.0637   -1.0089   -1.6059 H   0  0  0  0  0  0  0  0  0  0  0  0
    3.4599   -2.0304   -1.2713 H   0  0  0  0  0  0  0  0  0  0  0  0
    1.8715   -2.4556   -0.6117 H   0  0  0  0  0  0  0  0  0  0  0  0
   -2.3298   -4.3445   -1.7928 H   0  0  0  0  0  0  0  0  0  0  0  0
   -2.7493   -3.9796    0.6250 H   0  0  0  0  0  0  0  0  0  0  0  0
   -1.2462   -2.5668   -3.1399 H   0  0  0  0  0  0  0  0  0  0  0  0
   -3.7274    3.5237    0.9334 H   0  0  0  0  0  0  0  0  0  0  0  0
   -2.2695    4.5290    0.9059 H   0  0  0  0  0  0  0  0  0  0  0  0
   -2.1973    4.1743   -1.4018 H   0  0  0  0  0  0  0  0  0  0  0  0
   -3.5309    3.0168   -1.2707 H   0  0  0  0  0  0  0  0  0  0  0  0
   -2.0870   -1.8641    1.6961 H   0  0  0  0  0  0  0  0  0  0  0  0
   -0.5785   -0.4477   -2.0943 H   0  0  0  0  0  0  0  0  0  0  0  0
   -0.8999    2.8015    1.5988 H   0  0  0  0  0  0  0  0  0  0  0  0
   -2.4011    2.0621    2.1961 H   0  0  0  0  0  0  0  0  0  0  0  0
   -0.5579    2.5146   -1.0713 H   0  0  0  0  0  0  0  0  0  0  0  0
   -1.8072    1.5310   -1.8724 H   0  0  0  0  0  0  0  0  0  0  0  0
    0.8956    1.6110    0.8076 H   0  0  0  0  0  0  0  0  0  0  0  0
    0.8924    0.6616   -0.6737 H   0  0  0  0  0  0  0  0  0  0  0  0
   -0.9960    0.1178    1.6694 H   0  0  0  0  0  0  0  0  0  0  0  0
  1 17  1  0
  2 17  1  0
  3 17  1  0
  4  5  2  0
  4  6  1  0
  5  9  1  0
  6 10  2  0
  7  8  1  0
  7 11  1  0
  8 12  1  0
  9 14  2  0
 10 14  1  0
 11 18  1  0
 12 18  1  0
 13 15  1  0
 13 16  1  0
 14 15  1  0
 15 18  1  0
 16 17  1  0
 16 19  2  0
  1 20  1  0
  1 21  1  0
  1 22  1  0
  2 23  1  0
  2 24  1  0
  2 25  1  0
  3 26  1  0
  3 27  1  0
  3 28  1  0
  4 29  1  0
  5 30  1  0
  6 31  1  0
  7 32  1  0
  7 33  1  0
  8 34  1  0
  8 35  1  0
  9 36  1  0
 10 37  1  0
 11 38  1  0
 11 39  1  0
 12 40  1  0
 12 41  1  0
 13 42  1  0
 13 43  1  0
 15 44  1  0
M  END
