
     RDKit          3D

 44 46  0  0  0  0  0  0  0  0999 V2000
   -2.2402    3.6308   -1.4071 C   0  0  0  0  0  0  0  0  0  0  0  0
   -2.4228   -2.6147    0.6787 C   0  0  0  0  0  0  0  0  0  0  0  0
   -2.6371    3.1283   -0.1715 C   0  0  0  0  0  0  0  0  0  0  0  0
   -1.3290    2.9196   -2.1791 C   0  0  0  0  0  0  0  0  0  0  0  0
   -1.4078   -2.6371   -0.4614 C   0  0  0  0  0  0  0  0  0  0  0  0
   -2.4040   -1.3127    1.4768 C   0  0  0  0  0  0  0  0  0  0  0  0
   -2.1268    1.9115    0.2958 C   0  0  0  0  0  0  0  0  0  0  0  0
   -0.8207    1.7051   -1.7137 C   0  0  0  0  0  0  0  0  0  0  0  0
    3.1439   -1.0572   -0.4272 C   0  0  0  0  0  0  0  0  0  0  0  0
    2.9180    1.1893    0.6236 C   0  0  0  0  0  0  0  0  0  0  0  0
   -1.1783   -1.2417   -1.0419 C   0  0  0  0  0  0  0  0  0  0  0  0
   -1.0312   -0.6382    1.4336 C   0  0  0  0  0  0  0  0  0  0  0  0
    1.6649   -1.3154   -0.1313 C   0  0  0  0  0  0  0  0  0  0  0  0
    1.4535    0.8683    0.9115 C   0  0  0  0  0  0  0  0  0  0  0  0
   -1.2098    1.1682   -0.4657 C   0  0  0  0  0  0  0  0  0  0  0  0
    3.7462   -0.0844    0.5750 C   0  0  0  0  0  0  0  0  0  0  0  0
   -0.6029   -0.1985   -0.0105 C   0  0  0  0  0  0  0  0  0  0  0  0
    0.8962   -0.0670   -0.0865 N   0  0  0  0  0  0  0  0  0  0  0  0
    5.0832    0.2407    0.2067 O   0  0  0  0  0  0  0  0  0  0  0  0
   -2.6366    4.5769   -1.7647 H   0  0  0  0  0  0  0  0  0  0  0  0
   -3.4334   -2.7708    0.2819 H   0  0  0  0  0  0  0  0  0  0  0  0
   -2.2236   -3.4631    1.3446 H   0  0  0  0  0  0  0  0  0  0  0  0
   -3.3461    3.6851    0.4359 H   0  0  0  0  0  0  0  0  0  0  0  0
   -1.0070    3.3080   -3.1413 H   0  0  0  0  0  0  0  0  0  0  0  0
   -0.4676   -3.0616   -0.0953 H   0  0  0  0  0  0  0  0  0  0  0  0
   -1.7612   -3.3143   -1.2478 H   0  0  0  0  0  0  0  0  0  0  0  0
   -3.1724   -0.6399    1.0810 H   0  0  0  0  0  0  0  0  0  0  0  0
   -2.6852   -1.5207    2.5157 H   0  0  0  0  0  0  0  0  0  0  0  0
   -2.4685    1.5724    1.2680 H   0  0  0  0  0  0  0  0  0  0  0  0
   -0.0976    1.1715   -2.3288 H   0  0  0  0  0  0  0  0  0  0  0  0
    3.7001   -2.0023   -0.4094 H   0  0  0  0  0  0  0  0  0  0  0  0
    3.2615   -0.6634   -1.4458 H   0  0  0  0  0  0  0  0  0  0  0  0
    3.0082    1.7351   -0.3250 H   0  0  0  0  0  0  0  0  0  0  0  0
    3.3156    1.8621    1.3931 H   0  0  0  0  0  0  0  0  0  0  0  0
   -2.1502   -0.8985   -1.4272 H   0  0  0  0  0  0  0  0  0  0  0  0
   -0.5372   -1.3079   -1.9304 H   0  0  0  0  0  0  0  0  0  0  0  0
   -0.3159   -1.3651    1.8395 H   0  0  0  0  0  0  0  0  0  0  0  0
   -1.0099    0.2048    2.1339 H   0  0  0  0  0  0  0  0  0  0  0  0
    1.3119   -1.9691   -0.9332 H   0  0  0  0  0  0  0  0  0  0  0  0
    1.5774   -1.8698    0.8100 H   0  0  0  0  0  0  0  0  0  0  0  0
    0.9103    1.8192    0.9135 H   0  0  0  0  0  0  0  0  0  0  0  0
    1.3745    0.4512    1.9231 H   0  0  0  0  0  0  0  0  0  0  0  0
    3.7787   -0.5427    1.5707 H   0  0  0  0  0  0  0  0  0  0  0  0
    5.5787   -0.5919    0.1281 H   0  0  0  0  0  0  0  0  0  0  0  0
  1  3  2  0
  1  4  1  0
  2  5  1  0
  2  6  1  0
  3  7  1  0
  4  8  2  0
  5 11  1  0
  6 12  1  0
  7 15  2  0
  8 15  1  0
  9 13  1  0
  9 16  1  0
 10 14  1  0
 10 16  1  0
 11 17  1  0
 12 17  1  0
 13 18  1  0
 14 18  1  0
 15 17  1  0
 16 19  1  0
 17 18  1  0
  1 20  1  0
  2 21  1  0
  2 22  1  0
  3 23  1  0
  4 24  1  0
  5 25  1  0
  5 26  1  0
  6 27  1  0
  6 28  1  0
  7 29  1  0
  8 30  1  0
  9 31  1  0
  9 32  1  0
 10 33  1  0
 10 34  1  0
 11 35  1  0
 11 36  1  0
 12 37  1  0
 12 38  1  0
 13 39  1  0
 13 40  1  0
 14 41  1  0
 14 42  1  0
 16 43  1  0
 19 44  1  0
M  END
