
     RDKit          3D

 46 47  0  0  0  0  0  0  0  0999 V2000
    4.1758    0.2512    1.9163 C   0  0  0  0  0  0  0  0  0  0  0  0
    3.7352    2.1866    0.5817 C   0  0  0  0  0  0  0  0  0  0  0  0
   -4.0011   -3.6133   -0.7325 C   0  0  0  0  0  0  0  0  0  0  0  0
   -3.0124   -3.3191   -1.6652 C   0  0  0  0  0  0  0  0  0  0  0  0
   -3.9708   -3.0083    0.5180 C   0  0  0  0  0  0  0  0  0  0  0  0
   -1.9620    2.6558   -0.9871 C   0  0  0  0  0  0  0  0  0  0  0  0
   -0.9656    3.0401    0.1017 C   0  0  0  0  0  0  0  0  0  0  0  0
   -1.9811   -2.4236   -1.3511 C   0  0  0  0  0  0  0  0  0  0  0  0
   -2.9427   -2.1163    0.8361 C   0  0  0  0  0  0  0  0  0  0  0  0
   -2.0570    1.1203   -0.9784 C   0  0  0  0  0  0  0  0  0  0  0  0
   -0.2575    1.7364    0.4860 C   0  0  0  0  0  0  0  0  0  0  0  0
    3.3977   -0.0035   -0.3674 C   0  0  0  0  0  0  0  0  0  0  0  0
    2.7770   -1.4076   -0.2391 C   0  0  0  0  0  0  0  0  0  0  0  0
   -1.9222   -1.8126   -0.0889 C   0  0  0  0  0  0  0  0  0  0  0  0
   -0.8398   -0.8002    0.3078 C   0  0  0  0  0  0  0  0  0  0  0  0
    0.4605   -0.9370   -0.4765 C   0  0  0  0  0  0  0  0  0  0  0  0
   -1.3493    0.6660    0.3087 C   0  0  0  0  0  0  0  0  0  0  0  0
    3.3399    0.8037    0.8600 N   0  0  0  0  0  0  0  0  0  0  0  0
    0.6038   -0.6676   -1.6635 O   0  0  0  0  0  0  0  0  0  0  0  0
   -2.2522    0.8058    1.4281 O   0  0  0  0  0  0  0  0  0  0  0  0
    1.4609   -1.3747    0.3389 O   0  0  0  0  0  0  0  0  0  0  0  0
    4.0808    0.8500    2.8278 H   0  0  0  0  0  0  0  0  0  0  0  0
    3.8589   -0.7504    2.2153 H   0  0  0  0  0  0  0  0  0  0  0  0
    5.2351    0.2285    1.6349 H   0  0  0  0  0  0  0  0  0  0  0  0
    3.7388    2.7781    1.5080 H   0  0  0  0  0  0  0  0  0  0  0  0
    3.0087    2.6595   -0.0928 H   0  0  0  0  0  0  0  0  0  0  0  0
    4.7355    2.2535    0.1250 H   0  0  0  0  0  0  0  0  0  0  0  0
   -4.8066   -4.3024   -0.9820 H   0  0  0  0  0  0  0  0  0  0  0  0
   -3.0539   -3.7666   -2.6517 H   0  0  0  0  0  0  0  0  0  0  0  0
   -4.7601   -3.2092    1.2372 H   0  0  0  0  0  0  0  0  0  0  0  0
   -1.6333    3.0039   -1.9660 H   0  0  0  0  0  0  0  0  0  0  0  0
   -2.9374    3.1115   -0.7901 H   0  0  0  0  0  0  0  0  0  0  0  0
   -0.2616    3.8023   -0.2343 H   0  0  0  0  0  0  0  0  0  0  0  0
   -1.5018    3.4525    0.9617 H   0  0  0  0  0  0  0  0  0  0  0  0
   -1.2420   -2.2138   -2.1260 H   0  0  0  0  0  0  0  0  0  0  0  0
   -2.9630   -1.6314    1.8150 H   0  0  0  0  0  0  0  0  0  0  0  0
   -3.1070    0.8105   -1.0045 H   0  0  0  0  0  0  0  0  0  0  0  0
   -1.5654    0.7357   -1.8735 H   0  0  0  0  0  0  0  0  0  0  0  0
    0.1361    1.7811    1.5108 H   0  0  0  0  0  0  0  0  0  0  0  0
    0.5845    1.5917   -0.2030 H   0  0  0  0  0  0  0  0  0  0  0  0
    2.8458    0.5256   -1.1465 H   0  0  0  0  0  0  0  0  0  0  0  0
    4.4316   -0.0931   -0.7209 H   0  0  0  0  0  0  0  0  0  0  0  0
    3.3910   -2.0324    0.4127 H   0  0  0  0  0  0  0  0  0  0  0  0
    2.7490   -1.9100   -1.2101 H   0  0  0  0  0  0  0  0  0  0  0  0
   -0.5864   -1.0497    1.3451 H   0  0  0  0  0  0  0  0  0  0  0  0
   -2.8145    1.5925    1.2852 H   0  0  0  0  0  0  0  0  0  0  0  0
  1 18  1  0
  2 18  1  0
  3  4  2  0
  3  5  1  0
  4  8  1  0
  5  9  2  0
  6  7  1  0
  6 10  1  0
  7 11  1  0
  8 14  2  0
  9 14  1  0
 10 17  1  0
 11 17  1  0
 12 13  1  0
 12 18  1  0
 13 21  1  0
 14 15  1  0
 15 16  1  0
 15 17  1  0
 16 19  2  0
 16 21  1  0
 17 20  1  0
  1 22  1  0
  1 23  1  0
  1 24  1  0
  2 25  1  0
  2 26  1  0
  2 27  1  0
  3 28  1  0
  4 29  1  0
  5 30  1  0
  6 31  1  0
  6 32  1  0
  7 33  1  0
  7 34  1  0
  8 35  1  0
  9 36  1  0
 10 37  1  0
 10 38  1  0
 11 39  1  0
 11 40  1  0
 12 41  1  0
 12 42  1  0
 13 43  1  0
 13 44  1  0
 15 45  1  0
 20 46  1  0
M  END
