
     RDKit          3D

 47 48  0  0  0  0  0  0  0  0999 V2000
    5.4851    2.9014    0.5433 C   0  0  0  0  0  0  0  0  0  0  0  0
    3.1939   -3.2011    0.9431 C   0  0  0  0  0  0  0  0  0  0  0  0
    1.7249    2.2115   -2.7615 C   0  0  0  0  0  0  0  0  0  0  0  0
   -5.6872    0.0234    0.5092 C   0  0  0  0  0  0  0  0  0  0  0  0
   -4.7002    1.1792    0.5646 C   0  0  0  0  0  0  0  0  0  0  0  0
   -1.6575   -1.9072   -0.2550 C   0  0  0  0  0  0  0  0  0  0  0  0
   -0.6632   -0.7773   -0.5063 C   0  0  0  0  0  0  0  0  0  0  0  0
   -5.2031   -0.8339   -0.6469 C   0  0  0  0  0  0  0  0  0  0  0  0
   -3.6072    0.8213   -0.4365 C   0  0  0  0  0  0  0  0  0  0  0  0
   -3.0266   -1.4487    0.2652 C   0  0  0  0  0  0  0  0  0  0  0  0
    3.7333   -0.2124    1.1803 C   0  0  0  0  0  0  0  0  0  0  0  0
    3.2425    1.4769   -0.4787 C   0  0  0  0  0  0  0  0  0  0  0  0
    4.0335    1.0110    0.5785 C   0  0  0  0  0  0  0  0  0  0  0  0
    0.7237   -1.3232   -0.7826 C   0  0  0  0  0  0  0  0  0  0  0  0
    2.6619   -0.9765    0.7214 C   0  0  0  0  0  0  0  0  0  0  0  0
    2.1518    0.7243   -0.9396 C   0  0  0  0  0  0  0  0  0  0  0  0
    1.8640   -0.5035   -0.3237 C   0  0  0  0  0  0  0  0  0  0  0  0
   -3.7475   -0.6188   -0.7160 N   0  0  0  0  0  0  0  0  0  0  0  0
    0.9423   -2.3846   -1.3603 O   0  0  0  0  0  0  0  0  0  0  0  0
    5.1118    1.6564    1.1201 O   0  0  0  0  0  0  0  0  0  0  0  0
    2.3436   -2.1370    1.3767 O   0  0  0  0  0  0  0  0  0  0  0  0
    1.3206    1.1101   -1.9582 O   0  0  0  0  0  0  0  0  0  0  0  0
    6.3636    3.2692    1.0817 H   0  0  0  0  0  0  0  0  0  0  0  0
    5.7643    2.7813   -0.5088 H   0  0  0  0  0  0  0  0  0  0  0  0
    4.6886    3.6437    0.6594 H   0  0  0  0  0  0  0  0  0  0  0  0
    3.2351   -3.2744   -0.1492 H   0  0  0  0  0  0  0  0  0  0  0  0
    2.7820   -4.1373    1.3312 H   0  0  0  0  0  0  0  0  0  0  0  0
    4.2024   -3.0786    1.3521 H   0  0  0  0  0  0  0  0  0  0  0  0
    2.7194    2.0487   -3.1901 H   0  0  0  0  0  0  0  0  0  0  0  0
    1.0154    2.2992   -3.5898 H   0  0  0  0  0  0  0  0  0  0  0  0
    1.6873    3.1450   -2.1907 H   0  0  0  0  0  0  0  0  0  0  0  0
   -5.6531   -0.5404    1.4489 H   0  0  0  0  0  0  0  0  0  0  0  0
   -6.7149    0.3690    0.3605 H   0  0  0  0  0  0  0  0  0  0  0  0
   -5.1791    2.1276    0.2993 H   0  0  0  0  0  0  0  0  0  0  0  0
   -4.2936    1.2779    1.5773 H   0  0  0  0  0  0  0  0  0  0  0  0
   -1.7930   -2.4875   -1.1774 H   0  0  0  0  0  0  0  0  0  0  0  0
   -1.2318   -2.6047    0.4786 H   0  0  0  0  0  0  0  0  0  0  0  0
   -0.6179   -0.1265    0.3744 H   0  0  0  0  0  0  0  0  0  0  0  0
   -0.9697   -0.1806   -1.3714 H   0  0  0  0  0  0  0  0  0  0  0  0
   -5.4908   -1.8858   -0.5438 H   0  0  0  0  0  0  0  0  0  0  0  0
   -5.6524   -0.4785   -1.5832 H   0  0  0  0  0  0  0  0  0  0  0  0
   -3.7762    1.3715   -1.3710 H   0  0  0  0  0  0  0  0  0  0  0  0
   -2.6165    1.1165   -0.0786 H   0  0  0  0  0  0  0  0  0  0  0  0
   -3.5919   -2.3687    0.4646 H   0  0  0  0  0  0  0  0  0  0  0  0
   -2.9173   -0.9473    1.2353 H   0  0  0  0  0  0  0  0  0  0  0  0
    4.3308   -0.5624    2.0180 H   0  0  0  0  0  0  0  0  0  0  0  0
    3.4690    2.4316   -0.9356 H   0  0  0  0  0  0  0  0  0  0  0  0
  1 20  1  0
  2 21  1  0
  3 22  1  0
  4  5  1  0
  4  8  1  0
  5  9  1  0
  6  7  1  0
  6 10  1  0
  7 14  1  0
  8 18  1  0
  9 18  1  0
 10 18  1  0
 11 13  2  0
 11 15  1  0
 12 13  1  0
 12 16  2  0
 13 20  1  0
 14 17  1  0
 14 19  2  0
 15 17  2  0
 15 21  1  0
 16 17  1  0
 16 22  1  0
  1 23  1  0
  1 24  1  0
  1 25  1  0
  2 26  1  0
  2 27  1  0
  2 28  1  0
  3 29  1  0
  3 30  1  0
  3 31  1  0
  4 32  1  0
  4 33  1  0
  5 34  1  0
  5 35  1  0
  6 36  1  0
  6 37  1  0
  7 38  1  0
  7 39  1  0
  8 40  1  0
  8 41  1  0
  9 42  1  0
  9 43  1  0
 10 44  1  0
 10 45  1  0
 11 46  1  0
 12 47  1  0
M  END
