
     RDKit          3D

 48 49  0  0  0  0  0  0  0  0999 V2000
    6.5120    2.7344   -0.4500 C   0  0  0  0  0  0  0  0  0  0  0  0
    4.5077   -1.6642    0.1583 C   0  0  0  0  0  0  0  0  0  0  0  0
    5.2778    1.9024   -0.7557 C   0  0  0  0  0  0  0  0  0  0  0  0
    1.3062   -0.6061   -1.3119 C   0  0  0  0  0  0  0  0  0  0  0  0
    0.0252   -1.0673   -1.6374 C   0  0  0  0  0  0  0  0  0  0  0  0
   -5.5465    0.2535   -0.4513 C   0  0  0  0  0  0  0  0  0  0  0  0
   -5.9300    0.4456    1.0218 C   0  0  0  0  0  0  0  0  0  0  0  0
   -4.3882   -1.2681   -1.8993 C   0  0  0  0  0  0  0  0  0  0  0  0
   -3.8756   -0.1827    2.0906 C   0  0  0  0  0  0  0  0  0  0  0  0
   -2.9193   -0.8348   -1.8953 C   0  0  0  0  0  0  0  0  0  0  0  0
   -2.4865    0.2678    1.6468 C   0  0  0  0  0  0  0  0  0  0  0  0
    0.6086   -0.2990    0.9871 C   0  0  0  0  0  0  0  0  0  0  0  0
    4.1983   -0.2519   -0.3371 C   0  0  0  0  0  0  0  0  0  0  0  0
    1.6051   -0.2256    0.0032 C   0  0  0  0  0  0  0  0  0  0  0  0
   -0.9673   -1.1294   -0.6579 C   0  0  0  0  0  0  0  0  0  0  0  0
   -0.6694   -0.7469    0.6545 C   0  0  0  0  0  0  0  0  0  0  0  0
    2.9528    0.2748    0.4104 C   0  0  0  0  0  0  0  0  0  0  0  0
    5.3809    0.6014   -0.0952 N   0  0  0  0  0  0  0  0  0  0  0  0
    3.0005    1.0662    1.3523 O   0  0  0  0  0  0  0  0  0  0  0  0
   -5.0107   -1.0590   -0.6308 O   0  0  0  0  0  0  0  0  0  0  0  0
   -4.8151    0.8612    1.8225 O   0  0  0  0  0  0  0  0  0  0  0  0
   -2.2055   -1.6380   -0.9448 O   0  0  0  0  0  0  0  0  0  0  0  0
   -1.5939   -0.8533    1.6608 O   0  0  0  0  0  0  0  0  0  0  0  0
    6.4381    3.7115   -0.9372 H   0  0  0  0  0  0  0  0  0  0  0  0
    6.6179    2.9002    0.6273 H   0  0  0  0  0  0  0  0  0  0  0  0
    7.4220    2.2447   -0.8112 H   0  0  0  0  0  0  0  0  0  0  0  0
    5.3848   -2.0780   -0.3520 H   0  0  0  0  0  0  0  0  0  0  0  0
    4.6991   -1.6777    1.2374 H   0  0  0  0  0  0  0  0  0  0  0  0
    3.6680   -2.3411   -0.0320 H   0  0  0  0  0  0  0  0  0  0  0  0
    5.1953    1.7694   -1.8390 H   0  0  0  0  0  0  0  0  0  0  0  0
    4.3954    2.4520   -0.4152 H   0  0  0  0  0  0  0  0  0  0  0  0
    2.0431   -0.5503   -2.1071 H   0  0  0  0  0  0  0  0  0  0  0  0
   -0.1826   -1.3958   -2.6515 H   0  0  0  0  0  0  0  0  0  0  0  0
   -4.8180    1.0119   -0.7558 H   0  0  0  0  0  0  0  0  0  0  0  0
   -6.4427    0.3361   -1.0770 H   0  0  0  0  0  0  0  0  0  0  0  0
   -6.3802   -0.4570    1.4529 H   0  0  0  0  0  0  0  0  0  0  0  0
   -6.6635    1.2566    1.0889 H   0  0  0  0  0  0  0  0  0  0  0  0
   -4.4405   -2.3451   -2.0894 H   0  0  0  0  0  0  0  0  0  0  0  0
   -4.9505   -0.7579   -2.6903 H   0  0  0  0  0  0  0  0  0  0  0  0
   -4.1497   -1.1368    1.6284 H   0  0  0  0  0  0  0  0  0  0  0  0
   -3.8755   -0.3645    3.1737 H   0  0  0  0  0  0  0  0  0  0  0  0
   -2.5028   -0.9928   -2.8958 H   0  0  0  0  0  0  0  0  0  0  0  0
   -2.8396    0.2264   -1.6342 H   0  0  0  0  0  0  0  0  0  0  0  0
   -2.1062    1.0248    2.3443 H   0  0  0  0  0  0  0  0  0  0  0  0
   -2.5518    0.7543    0.6630 H   0  0  0  0  0  0  0  0  0  0  0  0
    0.8274   -0.0155    2.0148 H   0  0  0  0  0  0  0  0  0  0  0  0
    4.0194   -0.2830   -1.4148 H   0  0  0  0  0  0  0  0  0  0  0  0
    6.2260    0.1267   -0.4050 H   0  0  0  0  0  0  0  0  0  0  0  0
  1  3  1  0
  2 13  1  0
  3 18  1  0
  4  5  2  0
  4 14  1  0
  5 15  1  0
  6  7  1  0
  6 20  1  0
  7 21  1  0
  8 10  1  0
  8 20  1  0
  9 11  1  0
  9 21  1  0
 10 22  1  0
 11 23  1  0
 12 14  2  0
 12 16  1  0
 13 17  1  0
 13 18  1  0
 14 17  1  0
 15 16  2  0
 15 22  1  0
 16 23  1  0
 17 19  2  0
  1 24  1  0
  1 25  1  0
  1 26  1  0
  2 27  1  0
  2 28  1  0
  2 29  1  0
  3 30  1  0
  3 31  1  0
  4 32  1  0
  5 33  1  0
  6 34  1  0
  6 35  1  0
  7 36  1  0
  7 37  1  0
  8 38  1  0
  8 39  1  0
  9 40  1  0
  9 41  1  0
 10 42  1  0
 10 43  1  0
 11 44  1  0
 11 45  1  0
 12 46  1  0
 13 47  1  0
 18 48  1  0
M  END
