
     RDKit          3D

 47 48  0  0  0  0  0  0  0  0999 V2000
   -2.1632    1.4694    2.9755 C   0  0  0  0  0  0  0  0  0  0  0  0
   -3.3553   -0.1597   -2.2495 C   0  0  0  0  0  0  0  0  0  0  0  0
    2.5990    3.8889   -0.9369 C   0  0  0  0  0  0  0  0  0  0  0  0
    4.5588   -2.8654   -0.1027 C   0  0  0  0  0  0  0  0  0  0  0  0
   -3.0617    0.3288    2.5222 C   0  0  0  0  0  0  0  0  0  0  0  0
   -2.4061   -1.3033   -1.9330 C   0  0  0  0  0  0  0  0  0  0  0  0
    3.5009    1.2199   -0.5937 C   0  0  0  0  0  0  0  0  0  0  0  0
    3.8912   -0.1258   -0.4283 C   0  0  0  0  0  0  0  0  0  0  0  0
   -3.0254    0.0401    1.0120 C   0  0  0  0  0  0  0  0  0  0  0  0
   -2.4851   -1.8307   -0.4937 C   0  0  0  0  0  0  0  0  0  0  0  0
   -0.2555    0.7475   -0.0873 C   0  0  0  0  0  0  0  0  0  0  0  0
    0.4248   -1.6084    0.1900 C   0  0  0  0  0  0  0  0  0  0  0  0
   -0.6370   -0.5667    0.6442 C   0  0  0  0  0  0  0  0  0  0  0  0
    1.2344    0.6052   -0.2128 C   0  0  0  0  0  0  0  0  0  0  0  0
    1.6227   -0.7330   -0.0481 C   0  0  0  0  0  0  0  0  0  0  0  0
    2.1604    1.5982   -0.4940 C   0  0  0  0  0  0  0  0  0  0  0  0
    2.9491   -1.1211   -0.1604 C   0  0  0  0  0  0  0  0  0  0  0  0
   -2.0485   -0.9802    0.6169 N   0  0  0  0  0  0  0  0  0  0  0  0
    1.6632    2.8588   -0.6478 O   0  0  0  0  0  0  0  0  0  0  0  0
    3.2030   -2.4513    0.0004 O   0  0  0  0  0  0  0  0  0  0  0  0
   -2.3568    2.3763    2.3940 H   0  0  0  0  0  0  0  0  0  0  0  0
   -1.1033    1.2242    2.8905 H   0  0  0  0  0  0  0  0  0  0  0  0
   -2.3585    1.6997    4.0282 H   0  0  0  0  0  0  0  0  0  0  0  0
   -3.0491    0.7684   -1.7622 H   0  0  0  0  0  0  0  0  0  0  0  0
   -4.3783   -0.3976   -1.9420 H   0  0  0  0  0  0  0  0  0  0  0  0
   -3.3640    0.0295   -3.3281 H   0  0  0  0  0  0  0  0  0  0  0  0
    3.3202    4.0075   -0.1214 H   0  0  0  0  0  0  0  0  0  0  0  0
    3.1059    3.7060   -1.8901 H   0  0  0  0  0  0  0  0  0  0  0  0
    2.0447    4.8278   -1.0297 H   0  0  0  0  0  0  0  0  0  0  0  0
    5.1745   -2.3988    0.6733 H   0  0  0  0  0  0  0  0  0  0  0  0
    4.5906   -3.9480    0.0536 H   0  0  0  0  0  0  0  0  0  0  0  0
    4.9590   -2.6614   -1.1014 H   0  0  0  0  0  0  0  0  0  0  0  0
   -2.8339   -0.5780    3.0953 H   0  0  0  0  0  0  0  0  0  0  0  0
   -4.0919    0.6018    2.7861 H   0  0  0  0  0  0  0  0  0  0  0  0
   -1.3823   -1.0174   -2.1922 H   0  0  0  0  0  0  0  0  0  0  0  0
   -2.6573   -2.1374   -2.6012 H   0  0  0  0  0  0  0  0  0  0  0  0
    4.2798    1.9452   -0.8062 H   0  0  0  0  0  0  0  0  0  0  0  0
    4.9473   -0.3569   -0.5242 H   0  0  0  0  0  0  0  0  0  0  0  0
   -2.9033    0.9699    0.4472 H   0  0  0  0  0  0  0  0  0  0  0  0
   -4.0311   -0.3254    0.7652 H   0  0  0  0  0  0  0  0  0  0  0  0
   -3.5153   -2.1633   -0.3054 H   0  0  0  0  0  0  0  0  0  0  0  0
   -1.9138   -2.7666   -0.4487 H   0  0  0  0  0  0  0  0  0  0  0  0
   -0.5282    1.6274    0.5019 H   0  0  0  0  0  0  0  0  0  0  0  0
   -0.6969    0.8237   -1.0836 H   0  0  0  0  0  0  0  0  0  0  0  0
    0.1742   -2.1078   -0.7498 H   0  0  0  0  0  0  0  0  0  0  0  0
    0.6012   -2.3539    0.9716 H   0  0  0  0  0  0  0  0  0  0  0  0
   -0.4032   -0.4063    1.7065 H   0  0  0  0  0  0  0  0  0  0  0  0
  1  5  1  0
  2  6  1  0
  3 19  1  0
  4 20  1  0
  5  9  1  0
  6 10  1  0
  7  8  2  0
  7 16  1  0
  8 17  1  0
  9 18  1  0
 10 18  1  0
 11 13  1  0
 11 14  1  0
 12 13  1  0
 12 15  1  0
 13 18  1  0
 14 15  1  0
 14 16  2  0
 15 17  2  0
 16 19  1  0
 17 20  1  0
  1 21  1  0
  1 22  1  0
  1 23  1  0
  2 24  1  0
  2 25  1  0
  2 26  1  0
  3 27  1  0
  3 28  1  0
  3 29  1  0
  4 30  1  0
  4 31  1  0
  4 32  1  0
  5 33  1  0
  5 34  1  0
  6 35  1  0
  6 36  1  0
  7 37  1  0
  8 38  1  0
  9 39  1  0
  9 40  1  0
 10 41  1  0
 10 42  1  0
 11 43  1  0
 11 44  1  0
 12 45  1  0
 12 46  1  0
 13 47  1  0
M  END
