
     RDKit          3D

 38 41  0  0  0  0  0  0  0  0999 V2000
   -3.9740   -0.5485    1.5432 C   0  0  0  0  0  0  0  0  0  0  0  0
    4.4860   -0.3541    1.6852 C   0  0  0  0  0  0  0  0  0  0  0  0
    3.3220    0.2947    2.0973 C   0  0  0  0  0  0  0  0  0  0  0  0
    4.4530   -1.2270    0.5983 C   0  0  0  0  0  0  0  0  0  0  0  0
    2.1217    0.0789    1.4170 C   0  0  0  0  0  0  0  0  0  0  0  0
    3.2560   -1.4459   -0.0851 C   0  0  0  0  0  0  0  0  0  0  0  0
   -1.7144    2.4170   -0.8689 C   0  0  0  0  0  0  0  0  0  0  0  0
   -2.2930    1.1976   -0.5034 C   0  0  0  0  0  0  0  0  0  0  0  0
    0.4361    1.3431   -1.0408 C   0  0  0  0  0  0  0  0  0  0  0  0
   -0.6124   -2.5790   -1.5576 C   0  0  0  0  0  0  0  0  0  0  0  0
   -3.2721   -1.4817    0.6308 C   0  0  0  0  0  0  0  0  0  0  0  0
    2.0893   -0.7817    0.3120 C   0  0  0  0  0  0  0  0  0  0  0  0
   -0.3482    2.5008   -1.1575 C   0  0  0  0  0  0  0  0  0  0  0  0
   -0.1271    0.1138   -0.6469 C   0  0  0  0  0  0  0  0  0  0  0  0
   -1.5101    0.0367   -0.3985 C   0  0  0  0  0  0  0  0  0  0  0  0
   -1.7738   -2.4204   -0.6542 C   0  0  0  0  0  0  0  0  0  0  0  0
    0.8169   -1.0339   -0.4404 C   0  0  0  0  0  0  0  0  0  0  0  0
    0.2840    3.8160   -1.5493 C   0  0  0  0  0  0  0  0  0  0  0  0
   -0.6026    4.6963   -2.0895 F   0  0  0  0  0  0  0  0  0  0  0  0
    1.2766    3.6715   -2.4689 F   0  0  0  0  0  0  0  0  0  0  0  0
    0.8445    4.4503   -0.4843 F   0  0  0  0  0  0  0  0  0  0  0  0
    0.6204   -2.2369   -0.8617 N   0  0  0  0  0  0  0  0  0  0  0  0
   -3.5837   -2.7547    0.4928 N   0  0  0  0  0  0  0  0  0  0  0  0
   -2.6460   -3.3425   -0.3087 N   0  0  0  0  0  0  0  0  0  0  0  0
   -2.1413   -1.2033   -0.1215 N   0  0  0  0  0  0  0  0  0  0  0  0
   -4.4597   -1.1087    2.3494 H   0  0  0  0  0  0  0  0  0  0  0  0
   -3.2853    0.1602    2.0121 H   0  0  0  0  0  0  0  0  0  0  0  0
   -4.7542    0.0017    1.0097 H   0  0  0  0  0  0  0  0  0  0  0  0
    5.4186   -0.1893    2.2198 H   0  0  0  0  0  0  0  0  0  0  0  0
    3.3489    0.9608    2.9564 H   0  0  0  0  0  0  0  0  0  0  0  0
    5.3572   -1.7441    0.2868 H   0  0  0  0  0  0  0  0  0  0  0  0
    1.2220    0.5730    1.7725 H   0  0  0  0  0  0  0  0  0  0  0  0
    3.2355   -2.1367   -0.9251 H   0  0  0  0  0  0  0  0  0  0  0  0
   -2.3469    3.3013   -0.9549 H   0  0  0  0  0  0  0  0  0  0  0  0
   -3.3717    1.1779   -0.3705 H   0  0  0  0  0  0  0  0  0  0  0  0
    1.5035    1.4091   -1.2584 H   0  0  0  0  0  0  0  0  0  0  0  0
   -0.5450   -3.6250   -1.8772 H   0  0  0  0  0  0  0  0  0  0  0  0
   -0.7309   -1.9869   -2.4729 H   0  0  0  0  0  0  0  0  0  0  0  0
  1 11  1  0
  2  3  2  0
  2  4  1  0
  3  5  1  0
  4  6  2  0
  5 12  2  0
  6 12  1  0
  7  8  2  0
  7 13  1  0
  8 15  1  0
  9 13  2  0
  9 14  1  0
 10 16  1  0
 10 22  1  0
 11 23  2  0
 11 25  1  0
 12 17  1  0
 13 18  1  0
 14 15  2  0
 14 17  1  0
 15 25  1  0
 16 24  2  0
 16 25  1  0
 17 22  2  0
 18 19  1  0
 18 20  1  0
 18 21  1  0
 23 24  1  0
  1 26  1  0
  1 27  1  0
  1 28  1  0
  2 29  1  0
  3 30  1  0
  4 31  1  0
  5 32  1  0
  6 33  1  0
  7 34  1  0
  8 35  1  0
  9 36  1  0
 10 37  1  0
 10 38  1  0
M  END
