
     RDKit          3D

 39 42  0  0  0  0  0  0  0  0999 V2000
    3.8867   -2.2841   -0.3661 C   0  0  0  0  0  0  0  0  0  0  0  0
    2.7724   -2.5917    0.3920 C   0  0  0  0  0  0  0  0  0  0  0  0
    3.9632   -1.0453   -0.9982 C   0  0  0  0  0  0  0  0  0  0  0  0
    1.7242   -1.6739    0.4813 C   0  0  0  0  0  0  0  0  0  0  0  0
    2.0088    2.1319   -1.3080 C   0  0  0  0  0  0  0  0  0  0  0  0
   -2.2524   -1.2797    1.2014 C   0  0  0  0  0  0  0  0  0  0  0  0
   -2.3773    0.0920    1.8935 C   0  0  0  0  0  0  0  0  0  0  0  0
    0.8423    1.7846   -0.6309 C   0  0  0  0  0  0  0  0  0  0  0  0
   -2.1705   -0.6217   -1.2674 C   0  0  0  0  0  0  0  0  0  0  0  0
   -2.4969    1.6267   -0.1206 C   0  0  0  0  0  0  0  0  0  0  0  0
    4.1943    1.6103   -2.2085 C   0  0  0  0  0  0  0  0  0  0  0  0
    3.0286    1.1972   -1.4767 C   0  0  0  0  0  0  0  0  0  0  0  0
   -1.3564   -1.0238   -0.0268 C   0  0  0  0  0  0  0  0  0  0  0  0
   -1.5890    1.0648    0.9912 C   0  0  0  0  0  0  0  0  0  0  0  0
   -3.1410    0.5223   -0.9640 C   0  0  0  0  0  0  0  0  0  0  0  0
    2.9178   -0.0902   -0.9072 C   0  0  0  0  0  0  0  0  0  0  0  0
    1.7294   -0.4284   -0.1945 C   0  0  0  0  0  0  0  0  0  0  0  0
    0.6301    0.4936   -0.1268 C   0  0  0  0  0  0  0  0  0  0  0  0
    5.1314    1.9514   -2.8031 N   0  0  0  0  0  0  0  0  0  0  0  0
   -0.5897    0.1472    0.4302 N   0  0  0  0  0  0  0  0  0  0  0  0
   -3.6547    1.0687   -2.1765 O   0  0  0  0  0  0  0  0  0  0  0  0
    4.7094   -2.9898   -0.4453 H   0  0  0  0  0  0  0  0  0  0  0  0
    2.7147   -3.5367    0.9252 H   0  0  0  0  0  0  0  0  0  0  0  0
    4.8747   -0.8276   -1.5542 H   0  0  0  0  0  0  0  0  0  0  0  0
    0.8929   -1.9316    1.1337 H   0  0  0  0  0  0  0  0  0  0  0  0
    2.1087    3.1393   -1.7087 H   0  0  0  0  0  0  0  0  0  0  0  0
   -1.7604   -1.9809    1.8863 H   0  0  0  0  0  0  0  0  0  0  0  0
   -3.2245   -1.7081    0.9383 H   0  0  0  0  0  0  0  0  0  0  0  0
   -3.4193    0.3929    2.0415 H   0  0  0  0  0  0  0  0  0  0  0  0
   -1.9073    0.0365    2.8832 H   0  0  0  0  0  0  0  0  0  0  0  0
    0.0890    2.5567   -0.5289 H   0  0  0  0  0  0  0  0  0  0  0  0
   -1.4941   -0.3324   -2.0821 H   0  0  0  0  0  0  0  0  0  0  0  0
   -2.7378   -1.4821   -1.6433 H   0  0  0  0  0  0  0  0  0  0  0  0
   -3.2882    2.2451    0.3221 H   0  0  0  0  0  0  0  0  0  0  0  0
   -1.9480    2.3046   -0.7804 H   0  0  0  0  0  0  0  0  0  0  0  0
   -0.7617   -1.9089   -0.2631 H   0  0  0  0  0  0  0  0  0  0  0  0
   -1.1415    1.8691    1.5851 H   0  0  0  0  0  0  0  0  0  0  0  0
   -4.0077    0.1239   -0.4246 H   0  0  0  0  0  0  0  0  0  0  0  0
   -2.9003    1.3783   -2.7076 H   0  0  0  0  0  0  0  0  0  0  0  0
  1  2  2  0
  1  3  1  0
  2  4  1  0
  3 16  2  0
  4 17  2  0
  5  8  1  0
  5 12  2  0
  6  7  1  0
  6 13  1  0
  7 14  1  0
  8 18  2  0
  9 13  1  0
  9 15  1  0
 10 14  1  0
 10 15  1  0
 11 12  1  0
 11 19  3  0
 12 16  1  0
 13 20  1  0
 14 20  1  0
 15 21  1  0
 16 17  1  0
 17 18  1  0
 18 20  1  0
  1 22  1  0
  2 23  1  0
  3 24  1  0
  4 25  1  0
  5 26  1  0
  6 27  1  0
  6 28  1  0
  7 29  1  0
  7 30  1  0
  8 31  1  0
  9 32  1  0
  9 33  1  0
 10 34  1  0
 10 35  1  0
 13 36  1  0
 14 37  1  0
 15 38  1  0
 21 39  1  0
M  END
