
     RDKit          3D

 43 44  0  0  0  0  0  0  0  0999 V2000
    0.0989    0.5581   -2.5528 C   0  0  0  0  0  0  0  0  0  0  0  0
   -4.5821    2.7621    0.6986 C   0  0  0  0  0  0  0  0  0  0  0  0
    5.5966   -0.3688    1.5840 C   0  0  0  0  0  0  0  0  0  0  0  0
   -4.6868    1.8619   -0.3599 C   0  0  0  0  0  0  0  0  0  0  0  0
   -3.6101    2.5740    1.6798 C   0  0  0  0  0  0  0  0  0  0  0  0
    5.3175   -1.2595    0.5507 C   0  0  0  0  0  0  0  0  0  0  0  0
    4.6556    0.5956    1.9407 C   0  0  0  0  0  0  0  0  0  0  0  0
   -3.8176    0.7731   -0.4385 C   0  0  0  0  0  0  0  0  0  0  0  0
   -2.7389    1.4858    1.6027 C   0  0  0  0  0  0  0  0  0  0  0  0
    4.0967   -1.1831   -0.1218 C   0  0  0  0  0  0  0  0  0  0  0  0
    3.4326    0.6712    1.2662 C   0  0  0  0  0  0  0  0  0  0  0  0
   -1.2551   -3.2508   -1.0371 C   0  0  0  0  0  0  0  0  0  0  0  0
   -0.3852   -1.9926   -0.8674 C   0  0  0  0  0  0  0  0  0  0  0  0
   -1.8937   -0.6138    0.4598 C   0  0  0  0  0  0  0  0  0  0  0  0
    0.9657    0.6675   -0.1582 C   0  0  0  0  0  0  0  0  0  0  0  0
   -0.2809    0.4790   -1.0642 C   0  0  0  0  0  0  0  0  0  0  0  0
   -2.8292    0.5771    0.5383 C   0  0  0  0  0  0  0  0  0  0  0  0
    3.1471   -0.2206    0.2317 C   0  0  0  0  0  0  0  0  0  0  0  0
   -1.5696   -4.0743    0.5138 Cl  0  0  0  0  0  0  0  0  0  0  0  0
   -1.1403   -0.7174   -0.8099 N   0  0  0  0  0  0  0  0  0  0  0  0
    1.9971   -0.2577   -0.5064 O   0  0  0  0  0  0  0  0  0  0  0  0
    0.8059   -0.2189   -2.8571 H   0  0  0  0  0  0  0  0  0  0  0  0
    0.5648    1.5257   -2.7715 H   0  0  0  0  0  0  0  0  0  0  0  0
   -0.7916    0.4751   -3.1859 H   0  0  0  0  0  0  0  0  0  0  0  0
   -5.2605    3.6089    0.7602 H   0  0  0  0  0  0  0  0  0  0  0  0
    6.5460   -0.4249    2.1100 H   0  0  0  0  0  0  0  0  0  0  0  0
   -5.4452    2.0059   -1.1247 H   0  0  0  0  0  0  0  0  0  0  0  0
   -3.5333    3.2738    2.5079 H   0  0  0  0  0  0  0  0  0  0  0  0
    6.0473   -2.0129    0.2670 H   0  0  0  0  0  0  0  0  0  0  0  0
    4.8737    1.2924    2.7462 H   0  0  0  0  0  0  0  0  0  0  0  0
   -3.9036    0.0760   -1.2695 H   0  0  0  0  0  0  0  0  0  0  0  0
   -1.9908    1.3508    2.3802 H   0  0  0  0  0  0  0  0  0  0  0  0
    3.8831   -1.8797   -0.9285 H   0  0  0  0  0  0  0  0  0  0  0  0
    2.7299    1.4382    1.5729 H   0  0  0  0  0  0  0  0  0  0  0  0
   -2.2148   -3.0270   -1.5138 H   0  0  0  0  0  0  0  0  0  0  0  0
   -0.7323   -3.9779   -1.6666 H   0  0  0  0  0  0  0  0  0  0  0  0
    0.2837   -2.1004   -0.0049 H   0  0  0  0  0  0  0  0  0  0  0  0
    0.2549   -1.9758   -1.7557 H   0  0  0  0  0  0  0  0  0  0  0  0
   -1.2104   -0.6184    1.3177 H   0  0  0  0  0  0  0  0  0  0  0  0
   -2.5465   -1.4844    0.5813 H   0  0  0  0  0  0  0  0  0  0  0  0
    0.6832    0.5486    0.8939 H   0  0  0  0  0  0  0  0  0  0  0  0
    1.3391    1.6892   -0.3064 H   0  0  0  0  0  0  0  0  0  0  0  0
   -0.9010    1.3689   -0.9027 H   0  0  0  0  0  0  0  0  0  0  0  0
  1 16  1  0
  2  4  2  0
  2  5  1  0
  3  6  2  0
  3  7  1  0
  4  8  1  0
  5  9  2  0
  6 10  1  0
  7 11  2  0
  8 17  2  0
  9 17  1  0
 10 18  2  0
 11 18  1  0
 12 13  1  0
 12 19  1  0
 13 20  1  0
 14 17  1  0
 14 20  1  0
 15 16  1  0
 15 21  1  0
 16 20  1  0
 18 21  1  0
  1 22  1  0
  1 23  1  0
  1 24  1  0
  2 25  1  0
  3 26  1  0
  4 27  1  0
  5 28  1  0
  6 29  1  0
  7 30  1  0
  8 31  1  0
  9 32  1  0
 10 33  1  0
 11 34  1  0
 12 35  1  0
 12 36  1  0
 13 37  1  0
 13 38  1  0
 14 39  1  0
 14 40  1  0
 15 41  1  0
 15 42  1  0
 16 43  1  0
M  END
