
     RDKit          3D

 45 46  0  0  0  0  0  0  0  0999 V2000
    8.0295   -0.5148    0.2575 C   0  0  0  0  0  0  0  0  0  0  0  0
   -2.7741    3.6669   -0.7449 C   0  0  0  0  0  0  0  0  0  0  0  0
   -5.7384   -2.9026    0.9347 C   0  0  0  0  0  0  0  0  0  0  0  0
    3.4178   -1.3668   -0.7732 C   0  0  0  0  0  0  0  0  0  0  0  0
    3.9838    0.7343    0.2629 C   0  0  0  0  0  0  0  0  0  0  0  0
    4.7650   -1.7349   -0.7510 C   0  0  0  0  0  0  0  0  0  0  0  0
    5.3338    0.3628    0.2836 C   0  0  0  0  0  0  0  0  0  0  0  0
   -1.4673   -0.3213   -0.3908 C   0  0  0  0  0  0  0  0  0  0  0  0
   -0.5845   -0.0373    0.8331 C   0  0  0  0  0  0  0  0  0  0  0  0
   -3.8342   -0.9373    0.2202 C   0  0  0  0  0  0  0  0  0  0  0  0
   -4.6741    1.7152    0.0087 C   0  0  0  0  0  0  0  0  0  0  0  0
    1.5544    0.2706   -0.2890 C   0  0  0  0  0  0  0  0  0  0  0  0
    3.0132   -0.1239   -0.2705 C   0  0  0  0  0  0  0  0  0  0  0  0
   -2.9123    0.0653   -0.1412 C   0  0  0  0  0  0  0  0  0  0  0  0
    5.7302   -0.8740   -0.2250 C   0  0  0  0  0  0  0  0  0  0  0  0
   -5.5811    0.7091    0.3611 C   0  0  0  0  0  0  0  0  0  0  0  0
   -3.3378    1.4021   -0.2424 C   0  0  0  0  0  0  0  0  0  0  0  0
   -5.1732   -0.6275    0.4720 C   0  0  0  0  0  0  0  0  0  0  0  0
   -7.2224    1.1755    0.6586 Cl  0  0  0  0  0  0  0  0  0  0  0  0
    0.7946   -0.5167    0.6840 N   0  0  0  0  0  0  0  0  0  0  0  0
    7.0095   -1.3563   -0.2644 O   0  0  0  0  0  0  0  0  0  0  0  0
   -2.3719    2.3121   -0.5832 O   0  0  0  0  0  0  0  0  0  0  0  0
   -6.1306   -1.5409    0.8264 O   0  0  0  0  0  0  0  0  0  0  0  0
    8.9835   -1.0401    0.1508 H   0  0  0  0  0  0  0  0  0  0  0  0
    8.0991    0.4197   -0.3091 H   0  0  0  0  0  0  0  0  0  0  0  0
    7.8742   -0.3207    1.3240 H   0  0  0  0  0  0  0  0  0  0  0  0
   -1.8919    4.2436   -1.0391 H   0  0  0  0  0  0  0  0  0  0  0  0
   -3.5178    3.7663   -1.5424 H   0  0  0  0  0  0  0  0  0  0  0  0
   -3.1440    4.0828    0.1978 H   0  0  0  0  0  0  0  0  0  0  0  0
   -6.6222   -3.4835    1.2156 H   0  0  0  0  0  0  0  0  0  0  0  0
   -5.3789   -3.2878   -0.0252 H   0  0  0  0  0  0  0  0  0  0  0  0
   -4.9891   -3.0358    1.7218 H   0  0  0  0  0  0  0  0  0  0  0  0
    2.6801   -2.0570   -1.1770 H   0  0  0  0  0  0  0  0  0  0  0  0
    3.6969    1.7022    0.6677 H   0  0  0  0  0  0  0  0  0  0  0  0
    5.0636   -2.7034   -1.1441 H   0  0  0  0  0  0  0  0  0  0  0  0
    6.0473    1.0623    0.7052 H   0  0  0  0  0  0  0  0  0  0  0  0
   -1.4133   -1.3876   -0.6470 H   0  0  0  0  0  0  0  0  0  0  0  0
   -1.1043    0.2119   -1.2775 H   0  0  0  0  0  0  0  0  0  0  0  0
   -1.0149   -0.5546    1.7000 H   0  0  0  0  0  0  0  0  0  0  0  0
   -0.5899    1.0298    1.0873 H   0  0  0  0  0  0  0  0  0  0  0  0
   -3.4724   -1.9583    0.2987 H   0  0  0  0  0  0  0  0  0  0  0  0
   -5.0403    2.7338   -0.0590 H   0  0  0  0  0  0  0  0  0  0  0  0
    1.4646    1.3423   -0.0719 H   0  0  0  0  0  0  0  0  0  0  0  0
    1.1737    0.1140   -1.3049 H   0  0  0  0  0  0  0  0  0  0  0  0
    1.2663   -0.4395    1.5855 H   0  0  0  0  0  0  0  0  0  0  0  0
  1 21  1  0
  2 22  1  0
  3 23  1  0
  4  6  2  0
  4 13  1  0
  5  7  1  0
  5 13  2  0
  6 15  1  0
  7 15  2  0
  8  9  1  0
  8 14  1  0
  9 20  1  0
 10 14  2  0
 10 18  1  0
 11 16  1  0
 11 17  2  0
 12 13  1  0
 12 20  1  0
 14 17  1  0
 15 21  1  0
 16 18  2  0
 16 19  1  0
 17 22  1  0
 18 23  1  0
  1 24  1  0
  1 25  1  0
  1 26  1  0
  2 27  1  0
  2 28  1  0
  2 29  1  0
  3 30  1  0
  3 31  1  0
  3 32  1  0
  4 33  1  0
  5 34  1  0
  6 35  1  0
  7 36  1  0
  8 37  1  0
  8 38  1  0
  9 39  1  0
  9 40  1  0
 10 41  1  0
 11 42  1  0
 12 43  1  0
 12 44  1  0
 20 45  1  0
M  END
