
     RDKit          3D

 45 46  0  0  0  0  0  0  0  0999 V2000
    5.3612   -1.7787    0.6091 C   0  0  0  0  0  0  0  0  0  0  0  0
   -1.0197   -3.5581    1.0379 C   0  0  0  0  0  0  0  0  0  0  0  0
   -5.7714    1.8275   -0.7278 C   0  0  0  0  0  0  0  0  0  0  0  0
    4.2062    2.8352   -0.0409 C   0  0  0  0  0  0  0  0  0  0  0  0
    3.0113    2.4964   -0.6729 C   0  0  0  0  0  0  0  0  0  0  0  0
    5.0577    1.8318    0.4207 C   0  0  0  0  0  0  0  0  0  0  0  0
   -1.1811    0.6543    1.3113 C   0  0  0  0  0  0  0  0  0  0  0  0
   -0.2750    1.2620    0.2255 C   0  0  0  0  0  0  0  0  0  0  0  0
    3.5292    0.1491   -0.3782 C   0  0  0  0  0  0  0  0  0  0  0  0
   -3.4786    0.5210    0.2899 C   0  0  0  0  0  0  0  0  0  0  0  0
   -3.3797   -2.2641    0.1879 C   0  0  0  0  0  0  0  0  0  0  0  0
    1.3606    0.7786   -1.5240 C   0  0  0  0  0  0  0  0  0  0  0  0
    2.6601    1.1512   -0.8483 C   0  0  0  0  0  0  0  0  0  0  0  0
   -2.3392   -0.1590    0.7673 C   0  0  0  0  0  0  0  0  0  0  0  0
    4.7268    0.4853    0.2560 C   0  0  0  0  0  0  0  0  0  0  0  0
   -4.5058   -1.5763   -0.2785 C   0  0  0  0  0  0  0  0  0  0  0  0
   -2.2898   -1.5639    0.7082 C   0  0  0  0  0  0  0  0  0  0  0  0
   -4.5685   -0.1772   -0.2360 C   0  0  0  0  0  0  0  0  0  0  0  0
   -5.8171   -2.5159   -0.9098 Cl  0  0  0  0  0  0  0  0  0  0  0  0
    0.3616    0.2395   -0.6062 N   0  0  0  0  0  0  0  0  0  0  0  0
    5.6488   -0.3940    0.7541 O   0  0  0  0  0  0  0  0  0  0  0  0
   -1.1467   -2.1498    1.1873 O   0  0  0  0  0  0  0  0  0  0  0  0
   -5.7105    0.4080   -0.7162 O   0  0  0  0  0  0  0  0  0  0  0  0
    4.4471   -2.0507    1.1473 H   0  0  0  0  0  0  0  0  0  0  0  0
    5.2977   -2.0604   -0.4472 H   0  0  0  0  0  0  0  0  0  0  0  0
    6.1884   -2.3403    1.0538 H   0  0  0  0  0  0  0  0  0  0  0  0
   -1.0678   -3.8514   -0.0160 H   0  0  0  0  0  0  0  0  0  0  0  0
   -0.0346   -3.8459    1.4178 H   0  0  0  0  0  0  0  0  0  0  0  0
   -1.7721   -4.0859    1.6328 H   0  0  0  0  0  0  0  0  0  0  0  0
   -5.7308    2.2320    0.2888 H   0  0  0  0  0  0  0  0  0  0  0  0
   -6.7331    2.1173   -1.1621 H   0  0  0  0  0  0  0  0  0  0  0  0
   -4.9816    2.2525   -1.3560 H   0  0  0  0  0  0  0  0  0  0  0  0
    4.4759    3.8792    0.0937 H   0  0  0  0  0  0  0  0  0  0  0  0
    2.3533    3.2872   -1.0259 H   0  0  0  0  0  0  0  0  0  0  0  0
    5.9890    2.1002    0.9134 H   0  0  0  0  0  0  0  0  0  0  0  0
   -1.5906    1.4691    1.9236 H   0  0  0  0  0  0  0  0  0  0  0  0
   -0.5792    0.0571    2.0072 H   0  0  0  0  0  0  0  0  0  0  0  0
   -0.8631    1.9333   -0.4115 H   0  0  0  0  0  0  0  0  0  0  0  0
    0.4796    1.8696    0.7376 H   0  0  0  0  0  0  0  0  0  0  0  0
    3.2430   -0.8877   -0.5245 H   0  0  0  0  0  0  0  0  0  0  0  0
   -3.4825    1.6053    0.3425 H   0  0  0  0  0  0  0  0  0  0  0  0
   -3.3831   -3.3471    0.1331 H   0  0  0  0  0  0  0  0  0  0  0  0
    1.5804    0.0158   -2.2815 H   0  0  0  0  0  0  0  0  0  0  0  0
    0.9520    1.6295   -2.0834 H   0  0  0  0  0  0  0  0  0  0  0  0
    0.7718   -0.4820   -0.0155 H   0  0  0  0  0  0  0  0  0  0  0  0
  1 21  1  0
  2 22  1  0
  3 23  1  0
  4  5  2  0
  4  6  1  0
  5 13  1  0
  6 15  2  0
  7  8  1  0
  7 14  1  0
  8 20  1  0
  9 13  2  0
  9 15  1  0
 10 14  2  0
 10 18  1  0
 11 16  1  0
 11 17  2  0
 12 13  1  0
 12 20  1  0
 14 17  1  0
 15 21  1  0
 16 18  2  0
 16 19  1  0
 17 22  1  0
 18 23  1  0
  1 24  1  0
  1 25  1  0
  1 26  1  0
  2 27  1  0
  2 28  1  0
  2 29  1  0
  3 30  1  0
  3 31  1  0
  3 32  1  0
  4 33  1  0
  5 34  1  0
  6 35  1  0
  7 36  1  0
  7 37  1  0
  8 38  1  0
  8 39  1  0
  9 40  1  0
 10 41  1  0
 11 42  1  0
 12 43  1  0
 12 44  1  0
 20 45  1  0
M  END
