
     RDKit          3D

 45 46  0  0  0  0  0  0  0  0999 V2000
   -5.2636    0.1793   -1.3099 C   0  0  0  0  0  0  0  0  0  0  0  0
   -4.0163    3.2149    1.2866 C   0  0  0  0  0  0  0  0  0  0  0  0
   -1.6606   -3.4786   -0.7385 C   0  0  0  0  0  0  0  0  0  0  0  0
    5.7183    1.5471   -0.5588 C   0  0  0  0  0  0  0  0  0  0  0  0
    6.3446    0.7592    0.4054 C   0  0  0  0  0  0  0  0  0  0  0  0
    4.4373    1.2174   -1.0107 C   0  0  0  0  0  0  0  0  0  0  0  0
    5.6904   -0.3576    0.9204 C   0  0  0  0  0  0  0  0  0  0  0  0
   -0.2551   -0.2991    1.6467 C   0  0  0  0  0  0  0  0  0  0  0  0
    0.9583    0.2045    0.8455 C   0  0  0  0  0  0  0  0  0  0  0  0
   -3.1844   -1.0955   -0.6873 C   0  0  0  0  0  0  0  0  0  0  0  0
   -2.3497    0.9449    1.0107 C   0  0  0  0  0  0  0  0  0  0  0  0
    2.4046   -0.2667   -1.0593 C   0  0  0  0  0  0  0  0  0  0  0  0
   -3.9758    0.0567   -0.5412 C   0  0  0  0  0  0  0  0  0  0  0  0
   -1.5572   -0.2116    0.8718 C   0  0  0  0  0  0  0  0  0  0  0  0
    3.7582    0.1014   -0.4952 C   0  0  0  0  0  0  0  0  0  0  0  0
    4.4116   -0.6765    0.4722 C   0  0  0  0  0  0  0  0  0  0  0  0
   -3.5538    1.0846    0.3157 C   0  0  0  0  0  0  0  0  0  0  0  0
   -1.9832   -1.2383    0.0133 C   0  0  0  0  0  0  0  0  0  0  0  0
    1.4798   -0.8321   -0.0646 N   0  0  0  0  0  0  0  0  0  0  0  0
    3.8143   -1.7742    1.0297 O   0  0  0  0  0  0  0  0  0  0  0  0
   -4.3833    2.1724    0.3926 O   0  0  0  0  0  0  0  0  0  0  0  0
   -1.1473   -2.3178   -0.0962 O   0  0  0  0  0  0  0  0  0  0  0  0
   -5.2204    1.0392   -1.9861 H   0  0  0  0  0  0  0  0  0  0  0  0
   -5.4570   -0.7113   -1.9171 H   0  0  0  0  0  0  0  0  0  0  0  0
   -6.1065    0.2986   -0.6215 H   0  0  0  0  0  0  0  0  0  0  0  0
   -4.7945    3.9830    1.2412 H   0  0  0  0  0  0  0  0  0  0  0  0
   -3.0726    3.6800    0.9834 H   0  0  0  0  0  0  0  0  0  0  0  0
   -3.9671    2.8524    2.3187 H   0  0  0  0  0  0  0  0  0  0  0  0
   -2.5935   -3.8139   -0.2731 H   0  0  0  0  0  0  0  0  0  0  0  0
   -0.9232   -4.2784   -0.6201 H   0  0  0  0  0  0  0  0  0  0  0  0
   -1.7919   -3.3046   -1.8112 H   0  0  0  0  0  0  0  0  0  0  0  0
    6.2307    2.4153   -0.9653 H   0  0  0  0  0  0  0  0  0  0  0  0
    7.3419    1.0120    0.7544 H   0  0  0  0  0  0  0  0  0  0  0  0
    3.9744    1.8369   -1.7757 H   0  0  0  0  0  0  0  0  0  0  0  0
    6.1702   -0.9778    1.6718 H   0  0  0  0  0  0  0  0  0  0  0  0
   -0.0931   -1.3212    2.0121 H   0  0  0  0  0  0  0  0  0  0  0  0
   -0.3490    0.3120    2.5544 H   0  0  0  0  0  0  0  0  0  0  0  0
    0.6829    1.1119    0.2938 H   0  0  0  0  0  0  0  0  0  0  0  0
    1.7480    0.4728    1.5564 H   0  0  0  0  0  0  0  0  0  0  0  0
   -3.5274   -1.8686   -1.3677 H   0  0  0  0  0  0  0  0  0  0  0  0
   -1.9980    1.7283    1.6748 H   0  0  0  0  0  0  0  0  0  0  0  0
    2.5756   -1.0263   -1.8321 H   0  0  0  0  0  0  0  0  0  0  0  0
    1.9391    0.5897   -1.5625 H   0  0  0  0  0  0  0  0  0  0  0  0
    0.6780   -1.2361   -0.5614 H   0  0  0  0  0  0  0  0  0  0  0  0
    2.8663   -1.7284    0.7683 H   0  0  0  0  0  0  0  0  0  0  0  0
  1 13  1  0
  2 21  1  0
  3 22  1  0
  4  5  2  0
  4  6  1  0
  5  7  1  0
  6 15  2  0
  7 16  2  0
  8  9  1  0
  8 14  1  0
  9 19  1  0
 10 13  2  0
 10 18  1  0
 11 14  1  0
 11 17  2  0
 12 15  1  0
 12 19  1  0
 13 17  1  0
 14 18  2  0
 15 16  1  0
 16 20  1  0
 17 21  1  0
 18 22  1  0
  1 23  1  0
  1 24  1  0
  1 25  1  0
  2 26  1  0
  2 27  1  0
  2 28  1  0
  3 29  1  0
  3 30  1  0
  3 31  1  0
  4 32  1  0
  5 33  1  0
  6 34  1  0
  7 35  1  0
  8 36  1  0
  8 37  1  0
  9 38  1  0
  9 39  1  0
 10 40  1  0
 11 41  1  0
 12 42  1  0
 12 43  1  0
 19 44  1  0
 20 45  1  0
M  END
