
     RDKit          3D

 46 47  0  0  0  0  0  0  0  0999 V2000
    3.7011    0.5026    3.1540 C   0  0  0  0  0  0  0  0  0  0  0  0
   -1.4129    3.4182   -1.4624 C   0  0  0  0  0  0  0  0  0  0  0  0
   -0.1444   -2.8344    1.2046 C   0  0  0  0  0  0  0  0  0  0  0  0
    3.7686   -2.5919    0.2701 C   0  0  0  0  0  0  0  0  0  0  0  0
    3.2177   -2.3353   -0.9847 C   0  0  0  0  0  0  0  0  0  0  0  0
    3.7410   -1.6122    1.2665 C   0  0  0  0  0  0  0  0  0  0  0  0
   -3.1170    1.3934    1.0375 C   0  0  0  0  0  0  0  0  0  0  0  0
   -4.6122    1.2741    0.7023 C   0  0  0  0  0  0  0  0  0  0  0  0
    2.6043   -0.1214   -0.2480 C   0  0  0  0  0  0  0  0  0  0  0  0
   -1.7212   -0.6099    0.4115 C   0  0  0  0  0  0  0  0  0  0  0  0
   -1.0970    0.4571   -2.0850 C   0  0  0  0  0  0  0  0  0  0  0  0
    2.0251   -0.8094   -2.6113 C   0  0  0  0  0  0  0  0  0  0  0  0
    2.6296   -1.0944   -1.2593 C   0  0  0  0  0  0  0  0  0  0  0  0
   -2.2186    0.6592    0.0648 C   0  0  0  0  0  0  0  0  0  0  0  0
    3.1581   -0.3715    1.0112 C   0  0  0  0  0  0  0  0  0  0  0  0
   -1.8804    1.1838   -1.1866 C   0  0  0  0  0  0  0  0  0  0  0  0
   -0.8987   -1.3321   -0.4643 C   0  0  0  0  0  0  0  0  0  0  0  0
   -0.5890   -0.7950   -1.7258 C   0  0  0  0  0  0  0  0  0  0  0  0
   -5.0564    2.2881   -0.2537 N   0  0  0  0  0  0  0  0  0  0  0  0
    3.0551    0.6666    1.8971 O   0  0  0  0  0  0  0  0  0  0  0  0
   -2.3946    2.3880   -1.5889 O   0  0  0  0  0  0  0  0  0  0  0  0
   -0.4089   -2.5797   -0.1710 O   0  0  0  0  0  0  0  0  0  0  0  0
    0.4433   -1.6647   -2.9064 S   0  0  0  0  0  0  0  0  0  0  0  0
    4.7767    0.3411    3.0282 H   0  0  0  0  0  0  0  0  0  0  0  0
    3.2422   -0.3095    3.7285 H   0  0  0  0  0  0  0  0  0  0  0  0
    3.5695    1.4283    3.7229 H   0  0  0  0  0  0  0  0  0  0  0  0
   -1.8672    4.3514   -1.8012 H   0  0  0  0  0  0  0  0  0  0  0  0
   -1.1105    3.5456   -0.4205 H   0  0  0  0  0  0  0  0  0  0  0  0
   -0.5399    3.2239   -2.0935 H   0  0  0  0  0  0  0  0  0  0  0  0
   -1.0704   -3.0778    1.7345 H   0  0  0  0  0  0  0  0  0  0  0  0
    0.3725   -1.9964    1.6851 H   0  0  0  0  0  0  0  0  0  0  0  0
    0.5101   -3.7086    1.2617 H   0  0  0  0  0  0  0  0  0  0  0  0
    4.2167   -3.5606    0.4744 H   0  0  0  0  0  0  0  0  0  0  0  0
    3.2374   -3.1134   -1.7457 H   0  0  0  0  0  0  0  0  0  0  0  0
    4.1763   -1.8540    2.2297 H   0  0  0  0  0  0  0  0  0  0  0  0
   -2.9575    0.9767    2.0420 H   0  0  0  0  0  0  0  0  0  0  0  0
   -2.8091    2.4443    1.1169 H   0  0  0  0  0  0  0  0  0  0  0  0
   -4.8453    0.2746    0.3167 H   0  0  0  0  0  0  0  0  0  0  0  0
   -5.1934    1.4155    1.6200 H   0  0  0  0  0  0  0  0  0  0  0  0
    2.1415    0.8454   -0.4348 H   0  0  0  0  0  0  0  0  0  0  0  0
   -2.0046   -1.0354    1.3694 H   0  0  0  0  0  0  0  0  0  0  0  0
   -0.8931    0.8704   -3.0689 H   0  0  0  0  0  0  0  0  0  0  0  0
    2.7307   -1.1309   -3.3861 H   0  0  0  0  0  0  0  0  0  0  0  0
    1.8893    0.2683   -2.7573 H   0  0  0  0  0  0  0  0  0  0  0  0
   -4.4034    2.3022   -1.0441 H   0  0  0  0  0  0  0  0  0  0  0  0
   -5.9610    2.0198   -0.6395 H   0  0  0  0  0  0  0  0  0  0  0  0
  1 20  1  0
  2 21  1  0
  3 22  1  0
  4  5  2  0
  4  6  1  0
  5 13  1  0
  6 15  2  0
  7  8  1  0
  7 14  1  0
  8 19  1  0
  9 13  2  0
  9 15  1  0
 10 14  2  0
 10 17  1  0
 11 16  2  0
 11 18  1  0
 12 13  1  0
 12 23  1  0
 14 16  1  0
 15 20  1  0
 16 21  1  0
 17 18  2  0
 17 22  1  0
 18 23  1  0
  1 24  1  0
  1 25  1  0
  1 26  1  0
  2 27  1  0
  2 28  1  0
  2 29  1  0
  3 30  1  0
  3 31  1  0
  3 32  1  0
  4 33  1  0
  5 34  1  0
  6 35  1  0
  7 36  1  0
  7 37  1  0
  8 38  1  0
  8 39  1  0
  9 40  1  0
 10 41  1  0
 11 42  1  0
 12 43  1  0
 12 44  1  0
 19 45  1  0
 19 46  1  0
M  END
