
     RDKit          3D

 49 51  0  0  0  0  0  0  0  0999 V2000
   -5.2956    0.2110   -1.7143 C   0  0  0  0  0  0  0  0  0  0  0  0
   -4.7580    0.2098    2.1561 C   0  0  0  0  0  0  0  0  0  0  0  0
    2.9852    0.2282    1.7903 C   0  0  0  0  0  0  0  0  0  0  0  0
    1.1812    3.3655   -1.0579 C   0  0  0  0  0  0  0  0  0  0  0  0
   -1.1494   -3.3290    0.8554 C   0  0  0  0  0  0  0  0  0  0  0  0
    7.1958   -0.9287   -0.2223 C   0  0  0  0  0  0  0  0  0  0  0  0
   -5.2823   -0.3175   -0.2857 C   0  0  0  0  0  0  0  0  0  0  0  0
    3.0083    0.3117   -2.0099 C   0  0  0  0  0  0  0  0  0  0  0  0
    4.3310   -0.0580   -2.2306 C   0  0  0  0  0  0  0  0  0  0  0  0
   -4.6514    0.6690    0.7049 C   0  0  0  0  0  0  0  0  0  0  0  0
    3.4084    0.1371    0.3520 C   0  0  0  0  0  0  0  0  0  0  0  0
    0.5406    2.0908   -0.6471 C   0  0  0  0  0  0  0  0  0  0  0  0
   -1.0502   -1.8631    0.5219 C   0  0  0  0  0  0  0  0  0  0  0  0
    2.5254    0.4110   -0.7013 C   0  0  0  0  0  0  0  0  0  0  0  0
    5.1322   -0.3125   -1.1321 C   0  0  0  0  0  0  0  0  0  0  0  0
    1.1525    0.8183   -0.4896 C   0  0  0  0  0  0  0  0  0  0  0  0
    0.1386   -0.0375   -0.1030 C   0  0  0  0  0  0  0  0  0  0  0  0
   -2.2717    0.2434    0.3209 C   0  0  0  0  0  0  0  0  0  0  0  0
   -3.2817    1.0338    0.3544 N   0  0  0  0  0  0  0  0  0  0  0  0
    4.7053   -0.2204    0.1451 N   0  0  0  0  0  0  0  0  0  0  0  0
    0.1140   -1.3789    0.1869 N   0  0  0  0  0  0  0  0  0  0  0  0
   -2.2015   -1.1057    0.5942 N   0  0  0  0  0  0  0  0  0  0  0  0
   -0.7688    2.0560   -0.3731 N   0  0  0  0  0  0  0  0  0  0  0  0
   -1.0001    0.7616   -0.0455 N   0  0  0  0  0  0  0  0  0  0  0  0
    6.4382   -0.6724   -1.4003 O   0  0  0  0  0  0  0  0  0  0  0  0
   -4.2805    0.3456   -2.1004 H   0  0  0  0  0  0  0  0  0  0  0  0
   -5.8181    1.1711   -1.7731 H   0  0  0  0  0  0  0  0  0  0  0  0
   -5.8121   -0.4957   -2.3717 H   0  0  0  0  0  0  0  0  0  0  0  0
   -4.2777    0.9306    2.8266 H   0  0  0  0  0  0  0  0  0  0  0  0
   -5.8090    0.1236    2.4527 H   0  0  0  0  0  0  0  0  0  0  0  0
   -4.2916   -0.7635    2.3269 H   0  0  0  0  0  0  0  0  0  0  0  0
    2.5572    1.2120    2.0072 H   0  0  0  0  0  0  0  0  0  0  0  0
    3.8453    0.0901    2.4543 H   0  0  0  0  0  0  0  0  0  0  0  0
    2.2550   -0.5510    2.0268 H   0  0  0  0  0  0  0  0  0  0  0  0
    1.4428    3.3333   -2.1202 H   0  0  0  0  0  0  0  0  0  0  0  0
    0.5154    4.2198   -0.8973 H   0  0  0  0  0  0  0  0  0  0  0  0
    2.0951    3.5406   -0.4811 H   0  0  0  0  0  0  0  0  0  0  0  0
   -0.1864   -3.8258    0.7094 H   0  0  0  0  0  0  0  0  0  0  0  0
   -1.8972   -3.7989    0.2104 H   0  0  0  0  0  0  0  0  0  0  0  0
   -1.4567   -3.4414    1.8991 H   0  0  0  0  0  0  0  0  0  0  0  0
    6.7783   -1.7685    0.3442 H   0  0  0  0  0  0  0  0  0  0  0  0
    7.2755   -0.0320    0.4022 H   0  0  0  0  0  0  0  0  0  0  0  0
    8.2077   -1.2081   -0.5318 H   0  0  0  0  0  0  0  0  0  0  0  0
   -6.3181   -0.5131    0.0187 H   0  0  0  0  0  0  0  0  0  0  0  0
   -4.7720   -1.2849   -0.2733 H   0  0  0  0  0  0  0  0  0  0  0  0
    2.3588    0.5117   -2.8582 H   0  0  0  0  0  0  0  0  0  0  0  0
    4.7277   -0.1479   -3.2351 H   0  0  0  0  0  0  0  0  0  0  0  0
   -5.2322    1.5988    0.6401 H   0  0  0  0  0  0  0  0  0  0  0  0
   -3.0533   -1.5701    0.8625 H   0  0  0  0  0  0  0  0  0  0  0  0
  1  7  1  0
  2 10  1  0
  3 11  1  0
  4 12  1  0
  5 13  1  0
  6 25  1  0
  7 10  1  0
  8  9  2  0
  8 14  1  0
  9 15  1  0
 10 19  1  0
 11 14  2  0
 11 20  1  0
 12 16  1  0
 12 23  2  0
 13 21  2  0
 13 22  1  0
 14 16  1  0
 15 20  2  0
 15 25  1  0
 16 17  2  0
 17 21  1  0
 17 24  1  0
 18 19  2  3
 18 22  1  0
 18 24  1  0
 23 24  1  0
  1 26  1  0
  1 27  1  0
  1 28  1  0
  2 29  1  0
  2 30  1  0
  2 31  1  0
  3 32  1  0
  3 33  1  0
  3 34  1  0
  4 35  1  0
  4 36  1  0
  4 37  1  0
  5 38  1  0
  5 39  1  0
  5 40  1  0
  6 41  1  0
  6 42  1  0
  6 43  1  0
  7 44  1  0
  7 45  1  0
  8 46  1  0
  9 47  1  0
 10 48  1  0
 22 49  1  0
M  END
