
     RDKit          3D

 45 47  0  0  0  0  0  0  0  0999 V2000
   -1.2300    3.3422   -2.0108 C   0  0  0  0  0  0  0  0  0  0  0  0
    5.6149    1.2608   -0.5094 C   0  0  0  0  0  0  0  0  0  0  0  0
   -3.9106   -1.6551   -0.4726 C   0  0  0  0  0  0  0  0  0  0  0  0
   -1.2574    2.6071   -0.6827 C   0  0  0  0  0  0  0  0  0  0  0  0
    3.6484    0.8944    1.0178 C   0  0  0  0  0  0  0  0  0  0  0  0
    3.5052    0.1098   -1.2521 C   0  0  0  0  0  0  0  0  0  0  0  0
    2.3636    0.4025    1.2647 C   0  0  0  0  0  0  0  0  0  0  0  0
    2.2211   -0.3847   -1.0029 C   0  0  0  0  0  0  0  0  0  0  0  0
   -1.9659   -2.4626    1.6943 C   0  0  0  0  0  0  0  0  0  0  0  0
   -2.3716   -1.0267    2.0469 C   0  0  0  0  0  0  0  0  0  0  0  0
   -0.2120   -2.0637   -0.1294 C   0  0  0  0  0  0  0  0  0  0  0  0
    4.2255    0.7621   -0.2475 C   0  0  0  0  0  0  0  0  0  0  0  0
    1.6309   -0.2497    0.2587 C   0  0  0  0  0  0  0  0  0  0  0  0
   -1.6825   -2.4244    0.1881 C   0  0  0  0  0  0  0  0  0  0  0  0
    0.2314   -0.7570    0.5716 C   0  0  0  0  0  0  0  0  0  0  0  0
   -2.2825   -0.2593    0.7188 C   0  0  0  0  0  0  0  0  0  0  0  0
   -0.8553    1.1443   -0.8115 C   0  0  0  0  0  0  0  0  0  0  0  0
   -0.8664    0.3364    0.4953 C   0  0  0  0  0  0  0  0  0  0  0  0
   -2.5051   -1.3035   -0.2948 N   0  0  0  0  0  0  0  0  0  0  0  0
   -0.5636    0.6552   -1.9029 O   0  0  0  0  0  0  0  0  0  0  0  0
   -1.5199    4.3884   -1.8734 H   0  0  0  0  0  0  0  0  0  0  0  0
   -0.2279    3.3200   -2.4519 H   0  0  0  0  0  0  0  0  0  0  0  0
   -1.9221    2.8866   -2.7267 H   0  0  0  0  0  0  0  0  0  0  0  0
    5.8405    2.1337    0.1123 H   0  0  0  0  0  0  0  0  0  0  0  0
    5.7291    1.5688   -1.5541 H   0  0  0  0  0  0  0  0  0  0  0  0
    6.3426    0.4733   -0.2909 H   0  0  0  0  0  0  0  0  0  0  0  0
   -4.3965   -2.0164    0.4395 H   0  0  0  0  0  0  0  0  0  0  0  0
   -4.4716   -0.7860   -0.8332 H   0  0  0  0  0  0  0  0  0  0  0  0
   -4.0093   -2.4318   -1.2389 H   0  0  0  0  0  0  0  0  0  0  0  0
   -0.5637    3.0908    0.0130 H   0  0  0  0  0  0  0  0  0  0  0  0
   -2.2666    2.6540   -0.2619 H   0  0  0  0  0  0  0  0  0  0  0  0
    4.1944    1.3831    1.8212 H   0  0  0  0  0  0  0  0  0  0  0  0
    3.9323   -0.0125   -2.2450 H   0  0  0  0  0  0  0  0  0  0  0  0
    1.9411    0.5270    2.2593 H   0  0  0  0  0  0  0  0  0  0  0  0
    1.6830   -0.8551   -1.8230 H   0  0  0  0  0  0  0  0  0  0  0  0
   -1.1063   -2.8030    2.2805 H   0  0  0  0  0  0  0  0  0  0  0  0
   -2.7999   -3.1401    1.9136 H   0  0  0  0  0  0  0  0  0  0  0  0
   -1.7338   -0.6010    2.8284 H   0  0  0  0  0  0  0  0  0  0  0  0
   -3.4003   -1.0217    2.4270 H   0  0  0  0  0  0  0  0  0  0  0  0
    0.4441   -2.8855    0.1851 H   0  0  0  0  0  0  0  0  0  0  0  0
   -0.1055   -1.9825   -1.2176 H   0  0  0  0  0  0  0  0  0  0  0  0
   -1.9276   -3.3741   -0.3007 H   0  0  0  0  0  0  0  0  0  0  0  0
    0.2992   -1.0398    1.6332 H   0  0  0  0  0  0  0  0  0  0  0  0
   -3.0321    0.5385    0.6650 H   0  0  0  0  0  0  0  0  0  0  0  0
   -0.6611    1.0572    1.2997 H   0  0  0  0  0  0  0  0  0  0  0  0
  1  4  1  0
  2 12  1  0
  3 19  1  0
  4 17  1  0
  5  7  2  0
  5 12  1  0
  6  8  1  0
  6 12  2  0
  7 13  1  0
  8 13  2  0
  9 10  1  0
  9 14  1  0
 10 16  1  0
 11 14  1  0
 11 15  1  0
 13 15  1  0
 14 19  1  0
 15 18  1  0
 16 18  1  0
 16 19  1  0
 17 18  1  0
 17 20  2  0
  1 21  1  0
  1 22  1  0
  1 23  1  0
  2 24  1  0
  2 25  1  0
  2 26  1  0
  3 27  1  0
  3 28  1  0
  3 29  1  0
  4 30  1  0
  4 31  1  0
  5 32  1  0
  6 33  1  0
  7 34  1  0
  8 35  1  0
  9 36  1  0
  9 37  1  0
 10 38  1  0
 10 39  1  0
 11 40  1  0
 11 41  1  0
 14 42  1  0
 15 43  1  0
 16 44  1  0
 18 45  1  0
M  END
