
     RDKit          3D

 47 48  0  0  0  0  0  0  0  0999 V2000
   -6.2107    1.5385    1.3135 C   0  0  0  0  0  0  0  0  0  0  0  0
   -1.3805   -0.5159   -1.7989 C   0  0  0  0  0  0  0  0  0  0  0  0
   -5.7502    1.2320   -0.1050 C   0  0  0  0  0  0  0  0  0  0  0  0
    6.8664    0.8341   -1.9399 C   0  0  0  0  0  0  0  0  0  0  0  0
    5.6627    0.4063   -2.4955 C   0  0  0  0  0  0  0  0  0  0  0  0
    7.0057    0.9024   -0.5555 C   0  0  0  0  0  0  0  0  0  0  0  0
    2.7268   -1.2208    0.3995 C   0  0  0  0  0  0  0  0  0  0  0  0
   -4.2525    0.9308   -0.1863 C   0  0  0  0  0  0  0  0  0  0  0  0
    4.5986    0.0416   -1.6661 C   0  0  0  0  0  0  0  0  0  0  0  0
    5.9415    0.5381    0.2736 C   0  0  0  0  0  0  0  0  0  0  0  0
    3.6266   -0.2517    0.6351 C   0  0  0  0  0  0  0  0  0  0  0  0
    1.6027   -1.5678    1.3319 C   0  0  0  0  0  0  0  0  0  0  0  0
   -0.7404   -2.1336    1.4928 C   0  0  0  0  0  0  0  0  0  0  0  0
   -2.1348   -2.0914    0.8432 C   0  0  0  0  0  0  0  0  0  0  0  0
   -0.0978   -0.1121    0.3644 C   0  0  0  0  0  0  0  0  0  0  0  0
   -1.4710   -0.0156   -0.3516 C   0  0  0  0  0  0  0  0  0  0  0  0
    4.7309    0.0908   -0.2720 C   0  0  0  0  0  0  0  0  0  0  0  0
   -3.8745   -0.4485    0.3412 C   0  0  0  0  0  0  0  0  0  0  0  0
    0.3026   -1.5079    0.6507 N   0  0  0  0  0  0  0  0  0  0  0  0
   -2.5151   -0.7469    0.3971 N   0  0  0  0  0  0  0  0  0  0  0  0
   -4.7320   -1.2486    0.7164 O   0  0  0  0  0  0  0  0  0  0  0  0
   -7.2786    1.7791    1.3183 H   0  0  0  0  0  0  0  0  0  0  0  0
   -6.0554    0.6865    1.9817 H   0  0  0  0  0  0  0  0  0  0  0  0
   -5.6699    2.3978    1.7231 H   0  0  0  0  0  0  0  0  0  0  0  0
   -1.0803   -1.5675   -1.8509 H   0  0  0  0  0  0  0  0  0  0  0  0
   -2.3457   -0.4279   -2.3078 H   0  0  0  0  0  0  0  0  0  0  0  0
   -0.6484    0.0706   -2.3639 H   0  0  0  0  0  0  0  0  0  0  0  0
   -6.3352    0.3975   -0.5085 H   0  0  0  0  0  0  0  0  0  0  0  0
   -5.9659    2.1056   -0.7316 H   0  0  0  0  0  0  0  0  0  0  0  0
    7.6937    1.1175   -2.5852 H   0  0  0  0  0  0  0  0  0  0  0  0
    5.5482    0.3596   -3.5753 H   0  0  0  0  0  0  0  0  0  0  0  0
    7.9423    1.2395   -0.1193 H   0  0  0  0  0  0  0  0  0  0  0  0
    2.7899   -1.8289   -0.4997 H   0  0  0  0  0  0  0  0  0  0  0  0
   -3.9571    0.9780   -1.2398 H   0  0  0  0  0  0  0  0  0  0  0  0
   -3.6971    1.6941    0.3695 H   0  0  0  0  0  0  0  0  0  0  0  0
    3.6633   -0.2722   -2.1230 H   0  0  0  0  0  0  0  0  0  0  0  0
    6.0710    0.5980    1.3517 H   0  0  0  0  0  0  0  0  0  0  0  0
    3.5721    0.3291    1.5529 H   0  0  0  0  0  0  0  0  0  0  0  0
    1.6114   -0.9339    2.2281 H   0  0  0  0  0  0  0  0  0  0  0  0
    1.7892   -2.5953    1.6703 H   0  0  0  0  0  0  0  0  0  0  0  0
   -0.7890   -1.6295    2.4677 H   0  0  0  0  0  0  0  0  0  0  0  0
   -0.4851   -3.1835    1.6805 H   0  0  0  0  0  0  0  0  0  0  0  0
   -2.8710   -2.4732    1.5595 H   0  0  0  0  0  0  0  0  0  0  0  0
   -2.1665   -2.7494   -0.0336 H   0  0  0  0  0  0  0  0  0  0  0  0
   -0.1524    0.4586    1.3020 H   0  0  0  0  0  0  0  0  0  0  0  0
    0.6509    0.3807   -0.2672 H   0  0  0  0  0  0  0  0  0  0  0  0
   -1.7394    1.0446   -0.3879 H   0  0  0  0  0  0  0  0  0  0  0  0
  1  3  1  0
  2 16  1  0
  3  8  1  0
  4  5  2  0
  4  6  1  0
  5  9  1  0
  6 10  2  0
  7 11  2  3
  7 12  1  0
  8 18  1  0
  9 17  2  0
 10 17  1  0
 11 17  1  0
 12 19  1  0
 13 14  1  0
 13 19  1  0
 14 20  1  0
 15 16  1  0
 15 19  1  0
 16 20  1  0
 18 20  1  0
 18 21  2  0
  1 22  1  0
  1 23  1  0
  1 24  1  0
  2 25  1  0
  2 26  1  0
  2 27  1  0
  3 28  1  0
  3 29  1  0
  4 30  1  0
  5 31  1  0
  6 32  1  0
  7 33  1  0
  8 34  1  0
  8 35  1  0
  9 36  1  0
 10 37  1  0
 11 38  1  0
 12 39  1  0
 12 40  1  0
 13 41  1  0
 13 42  1  0
 14 43  1  0
 14 44  1  0
 15 45  1  0
 15 46  1  0
 16 47  1  0
M  END
