
     RDKit          3D

 48 49  0  0  0  0  0  0  0  0999 V2000
   -3.6592   -2.8413    0.9236 C   0  0  0  0  0  0  0  0  0  0  0  0
   -2.4653    0.6142   -2.0106 C   0  0  0  0  0  0  0  0  0  0  0  0
   -2.6818    1.9956    0.0640 C   0  0  0  0  0  0  0  0  0  0  0  0
    3.2802   -3.0037   -1.3416 C   0  0  0  0  0  0  0  0  0  0  0  0
   -2.8573   -1.9725    1.8846 C   0  0  0  0  0  0  0  0  0  0  0  0
    3.8464    2.7004   -1.2012 C   0  0  0  0  0  0  0  0  0  0  0  0
    3.1318    3.2693   -0.1420 C   0  0  0  0  0  0  0  0  0  0  0  0
    3.6682    1.3647   -1.5490 C   0  0  0  0  0  0  0  0  0  0  0  0
    0.4367   -0.7685    1.1827 C   0  0  0  0  0  0  0  0  0  0  0  0
   -2.6286   -0.5441    1.3609 C   0  0  0  0  0  0  0  0  0  0  0  0
   -0.5784   -1.1089    0.0692 C   0  0  0  0  0  0  0  0  0  0  0  0
    0.6721    1.6593    1.9707 C   0  0  0  0  0  0  0  0  0  0  0  0
   -1.9066    0.8474   -0.5990 C   0  0  0  0  0  0  0  0  0  0  0  0
    3.6026   -1.6239   -0.8478 C   0  0  0  0  0  0  0  0  0  0  0  0
    1.0084    0.6141    1.1305 C   0  0  0  0  0  0  0  0  0  0  0  0
    2.2251    2.4554    0.5514 C   0  0  0  0  0  0  0  0  0  0  0  0
    2.7743    0.5638   -0.8252 C   0  0  0  0  0  0  0  0  0  0  0  0
    2.0150    1.1106    0.2338 C   0  0  0  0  0  0  0  0  0  0  0  0
    1.4039    2.7567    1.6118 N   0  0  0  0  0  0  0  0  0  0  0  0
   -1.9055   -0.4595    0.0910 N   0  0  0  0  0  0  0  0  0  0  0  0
    4.6078   -1.3410   -0.2102 O   0  0  0  0  0  0  0  0  0  0  0  0
    2.5837   -0.7659   -1.2408 O   0  0  0  0  0  0  0  0  0  0  0  0
   -3.8563   -3.8189    1.3758 H   0  0  0  0  0  0  0  0  0  0  0  0
   -4.6228   -2.3778    0.6871 H   0  0  0  0  0  0  0  0  0  0  0  0
   -3.1185   -3.0096   -0.0132 H   0  0  0  0  0  0  0  0  0  0  0  0
   -3.5041    0.2639   -1.9781 H   0  0  0  0  0  0  0  0  0  0  0  0
   -2.4419    1.5400   -2.5956 H   0  0  0  0  0  0  0  0  0  0  0  0
   -1.8714   -0.1293   -2.5549 H   0  0  0  0  0  0  0  0  0  0  0  0
   -3.7564    1.7898    0.1263 H   0  0  0  0  0  0  0  0  0  0  0  0
   -2.5655    2.9166   -0.5212 H   0  0  0  0  0  0  0  0  0  0  0  0
   -2.3021    2.2044    1.0708 H   0  0  0  0  0  0  0  0  0  0  0  0
    4.0639   -3.6951   -1.0195 H   0  0  0  0  0  0  0  0  0  0  0  0
    3.2427   -3.0062   -2.4348 H   0  0  0  0  0  0  0  0  0  0  0  0
    2.3276   -3.3365   -0.9198 H   0  0  0  0  0  0  0  0  0  0  0  0
   -3.4081   -1.9054    2.8317 H   0  0  0  0  0  0  0  0  0  0  0  0
   -1.9067   -2.4641    2.1177 H   0  0  0  0  0  0  0  0  0  0  0  0
    4.5528    3.3107   -1.7592 H   0  0  0  0  0  0  0  0  0  0  0  0
    3.2774    4.3109    0.1271 H   0  0  0  0  0  0  0  0  0  0  0  0
    4.2313    0.9430   -2.3765 H   0  0  0  0  0  0  0  0  0  0  0  0
    1.2667   -1.4841    1.1163 H   0  0  0  0  0  0  0  0  0  0  0  0
   -0.0069   -0.9451    2.1699 H   0  0  0  0  0  0  0  0  0  0  0  0
   -3.6295   -0.1123    1.2407 H   0  0  0  0  0  0  0  0  0  0  0  0
   -2.1243    0.0427    2.1382 H   0  0  0  0  0  0  0  0  0  0  0  0
   -0.1142   -0.9548   -0.9141 H   0  0  0  0  0  0  0  0  0  0  0  0
   -0.7461   -2.1929    0.1095 H   0  0  0  0  0  0  0  0  0  0  0  0
   -0.0334    1.7118    2.7894 H   0  0  0  0  0  0  0  0  0  0  0  0
   -0.8810    1.2139   -0.7229 H   0  0  0  0  0  0  0  0  0  0  0  0
    1.3535    3.6621    2.0578 H   0  0  0  0  0  0  0  0  0  0  0  0
  1  5  1  0
  2 13  1  0
  3 13  1  0
  4 14  1  0
  5 10  1  0
  6  7  2  0
  6  8  1  0
  7 16  1  0
  8 17  2  0
  9 11  1  0
  9 15  1  0
 10 20  1  0
 11 20  1  0
 12 15  2  0
 12 19  1  0
 13 20  1  0
 14 21  2  0
 14 22  1  0
 15 18  1  0
 16 18  2  0
 16 19  1  0
 17 18  1  0
 17 22  1  0
  1 23  1  0
  1 24  1  0
  1 25  1  0
  2 26  1  0
  2 27  1  0
  2 28  1  0
  3 29  1  0
  3 30  1  0
  3 31  1  0
  4 32  1  0
  4 33  1  0
  4 34  1  0
  5 35  1  0
  5 36  1  0
  6 37  1  0
  7 38  1  0
  8 39  1  0
  9 40  1  0
  9 41  1  0
 10 42  1  0
 10 43  1  0
 11 44  1  0
 11 45  1  0
 12 46  1  0
 13 47  1  0
 19 48  1  0
M  END
