
     RDKit          3D

 49 49  0  0  0  0  0  0  0  0999 V2000
   -7.2661   -0.0887    1.8502 C   0  0  0  0  0  0  0  0  0  0  0  0
   -6.1943   -1.1217   -0.1656 C   0  0  0  0  0  0  0  0  0  0  0  0
    6.1035   -0.8509    1.4837 C   0  0  0  0  0  0  0  0  0  0  0  0
   -2.5081    0.6276    1.7559 C   0  0  0  0  0  0  0  0  0  0  0  0
   -1.2845   -0.2602    1.5044 C   0  0  0  0  0  0  0  0  0  0  0  0
   -3.7728    0.0837    1.1499 C   0  0  0  0  0  0  0  0  0  0  0  0
   -0.9111   -0.4921    0.0337 C   0  0  0  0  0  0  0  0  0  0  0  0
   -4.7981   -0.3968    1.8723 C   0  0  0  0  0  0  0  0  0  0  0  0
   -0.6155    0.7706   -0.7751 C   0  0  0  0  0  0  0  0  0  0  0  0
    4.2694    0.3612   -3.0582 C   0  0  0  0  0  0  0  0  0  0  0  0
    5.6458    0.1814   -3.1977 C   0  0  0  0  0  0  0  0  0  0  0  0
    4.4396   -0.1962   -0.7079 C   0  0  0  0  0  0  0  0  0  0  0  0
    2.1586    0.3429   -1.6581 C   0  0  0  0  0  0  0  0  0  0  0  0
   -6.1063   -0.9551    1.3538 C   0  0  0  0  0  0  0  0  0  0  0  0
    3.6533    0.1758   -1.8141 C   0  0  0  0  0  0  0  0  0  0  0  0
    6.4107   -0.1864   -2.0907 C   0  0  0  0  0  0  0  0  0  0  0  0
    5.8206   -0.3768   -0.8343 C   0  0  0  0  0  0  0  0  0  0  0  0
    0.6167    1.4818   -0.2964 C   0  0  0  0  0  0  0  0  0  0  0  0
    1.8429    1.3319   -0.6295 N   0  0  0  0  0  0  0  0  0  0  0  0
    7.7623   -0.3642   -2.2297 O   0  0  0  0  0  0  0  0  0  0  0  0
    0.3685    2.4085    0.6393 O   0  0  0  0  0  0  0  0  0  0  0  0
    6.6636   -0.7373    0.1840 O   0  0  0  0  0  0  0  0  0  0  0  0
   -7.2074    0.9278    1.4445 H   0  0  0  0  0  0  0  0  0  0  0  0
   -8.2284   -0.5173    1.5489 H   0  0  0  0  0  0  0  0  0  0  0  0
   -7.2650   -0.0153    2.9436 H   0  0  0  0  0  0  0  0  0  0  0  0
   -6.1333   -0.1578   -0.6832 H   0  0  0  0  0  0  0  0  0  0  0  0
   -7.1451   -1.5886   -0.4465 H   0  0  0  0  0  0  0  0  0  0  0  0
   -5.3904   -1.7653   -0.5392 H   0  0  0  0  0  0  0  0  0  0  0  0
    5.6649    0.0974    1.8119 H   0  0  0  0  0  0  0  0  0  0  0  0
    6.9139   -1.0984    2.1766 H   0  0  0  0  0  0  0  0  0  0  0  0
    5.3704   -1.6630    1.5275 H   0  0  0  0  0  0  0  0  0  0  0  0
   -2.6297    0.7424    2.8405 H   0  0  0  0  0  0  0  0  0  0  0  0
   -2.3378    1.6373    1.3673 H   0  0  0  0  0  0  0  0  0  0  0  0
   -0.4256    0.1732    2.0307 H   0  0  0  0  0  0  0  0  0  0  0  0
   -1.4569   -1.2400    1.9693 H   0  0  0  0  0  0  0  0  0  0  0  0
   -3.8347    0.1178    0.0655 H   0  0  0  0  0  0  0  0  0  0  0  0
   -0.0358   -1.1524    0.0123 H   0  0  0  0  0  0  0  0  0  0  0  0
   -1.7180   -1.0441   -0.4627 H   0  0  0  0  0  0  0  0  0  0  0  0
   -4.7024   -0.4063    2.9586 H   0  0  0  0  0  0  0  0  0  0  0  0
   -0.4851    0.5039   -1.8292 H   0  0  0  0  0  0  0  0  0  0  0  0
   -1.4624    1.4647   -0.7499 H   0  0  0  0  0  0  0  0  0  0  0  0
    3.6817    0.6493   -3.9267 H   0  0  0  0  0  0  0  0  0  0  0  0
    6.1026    0.3304   -4.1709 H   0  0  0  0  0  0  0  0  0  0  0  0
    3.9389   -0.3336    0.2454 H   0  0  0  0  0  0  0  0  0  0  0  0
    1.7419   -0.6411   -1.4131 H   0  0  0  0  0  0  0  0  0  0  0  0
    1.7274    0.6619   -2.6152 H   0  0  0  0  0  0  0  0  0  0  0  0
   -6.2201   -1.9539    1.7954 H   0  0  0  0  0  0  0  0  0  0  0  0
    8.0135   -0.1680   -3.1446 H   0  0  0  0  0  0  0  0  0  0  0  0
    1.2242    2.8078    0.8732 H   0  0  0  0  0  0  0  0  0  0  0  0
  1 14  1  0
  2 14  1  0
  3 22  1  0
  4  5  1  0
  4  6  1  0
  5  7  1  0
  6  8  2  3
  7  9  1  0
  8 14  1  0
  9 18  1  0
 10 11  2  0
 10 15  1  0
 11 16  1  0
 12 15  2  0
 12 17  1  0
 13 15  1  0
 13 19  1  0
 16 17  2  0
 16 20  1  0
 17 22  1  0
 18 19  2  3
 18 21  1  0
  1 23  1  0
  1 24  1  0
  1 25  1  0
  2 26  1  0
  2 27  1  0
  2 28  1  0
  3 29  1  0
  3 30  1  0
  3 31  1  0
  4 32  1  0
  4 33  1  0
  5 34  1  0
  5 35  1  0
  6 36  1  0
  7 37  1  0
  7 38  1  0
  8 39  1  0
  9 40  1  0
  9 41  1  0
 10 42  1  0
 11 43  1  0
 12 44  1  0
 13 45  1  0
 13 46  1  0
 14 47  1  0
 20 48  1  0
 21 49  1  0
M  END
