
     RDKit          3D

 48 49  0  0  0  0  0  0  0  0999 V2000
   -1.5855    3.2267    1.0276 C   0  0  0  0  0  0  0  0  0  0  0  0
   -4.0309    2.7844    0.9437 C   0  0  0  0  0  0  0  0  0  0  0  0
   -1.5860   -3.2736   -2.1460 C   0  0  0  0  0  0  0  0  0  0  0  0
   -2.0045   -3.1036    0.3174 C   0  0  0  0  0  0  0  0  0  0  0  0
    4.3157   -2.1341   -0.1399 C   0  0  0  0  0  0  0  0  0  0  0  0
    5.4175   -1.5035    0.4324 C   0  0  0  0  0  0  0  0  0  0  0  0
    3.1257   -1.4306   -0.3592 C   0  0  0  0  0  0  0  0  0  0  0  0
    5.3642   -0.1564    0.8017 C   0  0  0  0  0  0  0  0  0  0  0  0
    0.6282    0.7390   -0.6107 C   0  0  0  0  0  0  0  0  0  0  0  0
   -0.3248    0.1261    0.4331 C   0  0  0  0  0  0  0  0  0  0  0  0
    2.5439    2.0877    0.4502 C   0  0  0  0  0  0  0  0  0  0  0  0
   -2.4785    1.1772   -0.2342 C   0  0  0  0  0  0  0  0  0  0  0  0
   -1.8866   -0.9972   -1.1151 C   0  0  0  0  0  0  0  0  0  0  0  0
   -2.6465    2.1225    0.9827 C   0  0  0  0  0  0  0  0  0  0  0  0
   -1.3496   -2.4292   -0.8901 C   0  0  0  0  0  0  0  0  0  0  0  0
    2.0148    0.9226   -0.0706 C   0  0  0  0  0  0  0  0  0  0  0  0
    3.0447   -0.0705    0.0046 C   0  0  0  0  0  0  0  0  0  0  0  0
    4.1660    0.5318    0.5756 C   0  0  0  0  0  0  0  0  0  0  0  0
    3.8336    1.8403    0.8355 N   0  0  0  0  0  0  0  0  0  0  0  0
   -1.7278   -0.0693    0.0234 N   0  0  0  0  0  0  0  0  0  0  0  0
   -0.5760    2.8313    1.1451 H   0  0  0  0  0  0  0  0  0  0  0  0
   -1.7654    3.8992    1.8737 H   0  0  0  0  0  0  0  0  0  0  0  0
   -1.6049    3.8298    0.1132 H   0  0  0  0  0  0  0  0  0  0  0  0
   -4.1640    3.3732    0.0296 H   0  0  0  0  0  0  0  0  0  0  0  0
   -4.8242    2.0301    0.9819 H   0  0  0  0  0  0  0  0  0  0  0  0
   -4.1694    3.4513    1.8014 H   0  0  0  0  0  0  0  0  0  0  0  0
   -1.1795   -4.2825   -2.0181 H   0  0  0  0  0  0  0  0  0  0  0  0
   -2.6543   -3.3650   -2.3702 H   0  0  0  0  0  0  0  0  0  0  0  0
   -1.0937   -2.8235   -3.0146 H   0  0  0  0  0  0  0  0  0  0  0  0
   -1.6316   -4.1263    0.4388 H   0  0  0  0  0  0  0  0  0  0  0  0
   -1.7858   -2.5635    1.2439 H   0  0  0  0  0  0  0  0  0  0  0  0
   -3.0926   -3.1531    0.2021 H   0  0  0  0  0  0  0  0  0  0  0  0
    4.3777   -3.1828   -0.4194 H   0  0  0  0  0  0  0  0  0  0  0  0
    6.3335   -2.0666    0.5954 H   0  0  0  0  0  0  0  0  0  0  0  0
    2.2735   -1.9332   -0.8058 H   0  0  0  0  0  0  0  0  0  0  0  0
    6.2243    0.3320    1.2475 H   0  0  0  0  0  0  0  0  0  0  0  0
    0.2504    1.7103   -0.9500 H   0  0  0  0  0  0  0  0  0  0  0  0
    0.6837    0.0996   -1.4994 H   0  0  0  0  0  0  0  0  0  0  0  0
   -0.3008    0.7186    1.3544 H   0  0  0  0  0  0  0  0  0  0  0  0
    0.0838   -0.8372    0.7627 H   0  0  0  0  0  0  0  0  0  0  0  0
    2.1103    3.0704    0.5802 H   0  0  0  0  0  0  0  0  0  0  0  0
   -3.4878    0.8797   -0.5487 H   0  0  0  0  0  0  0  0  0  0  0  0
   -2.0527    1.7225   -1.0859 H   0  0  0  0  0  0  0  0  0  0  0  0
   -2.9582   -1.0925   -1.3389 H   0  0  0  0  0  0  0  0  0  0  0  0
   -1.4287   -0.5718   -2.0172 H   0  0  0  0  0  0  0  0  0  0  0  0
   -2.5922    1.5404    1.9113 H   0  0  0  0  0  0  0  0  0  0  0  0
   -0.2667   -2.3978   -0.7265 H   0  0  0  0  0  0  0  0  0  0  0  0
    4.4578    2.5169    1.2517 H   0  0  0  0  0  0  0  0  0  0  0  0
  1 14  1  0
  2 14  1  0
  3 15  1  0
  4 15  1  0
  5  6  2  0
  5  7  1  0
  6  8  1  0
  7 17  2  0
  8 18  2  0
  9 10  1  0
  9 16  1  0
 10 20  1  0
 11 16  2  0
 11 19  1  0
 12 14  1  0
 12 20  1  0
 13 15  1  0
 13 20  1  0
 16 17  1  0
 17 18  1  0
 18 19  1  0
  1 21  1  0
  1 22  1  0
  1 23  1  0
  2 24  1  0
  2 25  1  0
  2 26  1  0
  3 27  1  0
  3 28  1  0
  3 29  1  0
  4 30  1  0
  4 31  1  0
  4 32  1  0
  5 33  1  0
  6 34  1  0
  7 35  1  0
  8 36  1  0
  9 37  1  0
  9 38  1  0
 10 39  1  0
 10 40  1  0
 11 41  1  0
 12 42  1  0
 12 43  1  0
 13 44  1  0
 13 45  1  0
 14 46  1  0
 15 47  1  0
 19 48  1  0
M  END
