
     RDKit          3D

 38 41  0  0  0  0  0  0  0  0999 V2000
   -3.5845   -0.9947    2.1220 C   0  0  0  0  0  0  0  0  0  0  0  0
   -4.6071   -1.4715    1.3012 C   0  0  0  0  0  0  0  0  0  0  0  0
   -2.3732   -0.5747    1.5646 C   0  0  0  0  0  0  0  0  0  0  0  0
   -4.4204   -1.5285   -0.0789 C   0  0  0  0  0  0  0  0  0  0  0  0
    0.1292    4.0131    0.0397 C   0  0  0  0  0  0  0  0  0  0  0  0
   -0.1321   -1.1221   -0.9719 C   0  0  0  0  0  0  0  0  0  0  0  0
    1.1475    3.0705    0.1832 C   0  0  0  0  0  0  0  0  0  0  0  0
    1.2218   -0.8994   -1.5561 C   0  0  0  0  0  0  0  0  0  0  0  0
   -1.4210    2.2374   -0.4679 C   0  0  0  0  0  0  0  0  0  0  0  0
    3.1276    1.0002    0.8687 C   0  0  0  0  0  0  0  0  0  0  0  0
   -1.1494    3.5933   -0.2936 C   0  0  0  0  0  0  0  0  0  0  0  0
   -0.8806   -0.1645   -0.3918 C   0  0  0  0  0  0  0  0  0  0  0  0
   -2.1725   -0.6309    0.1778 C   0  0  0  0  0  0  0  0  0  0  0  0
   -0.4158    1.2560   -0.3183 C   0  0  0  0  0  0  0  0  0  0  0  0
   -3.2119   -1.1095   -0.6305 C   0  0  0  0  0  0  0  0  0  0  0  0
    0.8949    1.6949   -0.0095 C   0  0  0  0  0  0  0  0  0  0  0  0
    2.1934   -0.4044   -0.5496 C   0  0  0  0  0  0  0  0  0  0  0  0
    3.4119   -0.9006   -0.0955 C   0  0  0  0  0  0  0  0  0  0  0  0
    4.0811   -2.1493   -0.4399 C   0  0  0  0  0  0  0  0  0  0  0  0
   -2.4078    4.7510   -0.4807 Cl  0  0  0  0  0  0  0  0  0  0  0  0
   -3.0661   -1.1624   -1.9635 F   0  0  0  0  0  0  0  0  0  0  0  0
    5.2543   -2.4464   -0.0104 N   0  0  0  0  0  0  0  0  0  0  0  0
    3.9778    0.0079    0.7801 N   0  0  0  0  0  0  0  0  0  0  0  0
    2.0001    0.8002    0.1075 N   0  0  0  0  0  0  0  0  0  0  0  0
    3.4206   -3.0096   -1.2344 O   0  0  0  0  0  0  0  0  0  0  0  0
   -3.7290   -0.9494    3.1991 H   0  0  0  0  0  0  0  0  0  0  0  0
   -5.5484   -1.7969    1.7374 H   0  0  0  0  0  0  0  0  0  0  0  0
   -1.5852   -0.2079    2.2192 H   0  0  0  0  0  0  0  0  0  0  0  0
   -5.2083   -1.8934   -0.7302 H   0  0  0  0  0  0  0  0  0  0  0  0
    0.3459    5.0697    0.1755 H   0  0  0  0  0  0  0  0  0  0  0  0
   -0.4893   -2.1499   -1.0147 H   0  0  0  0  0  0  0  0  0  0  0  0
    2.1453    3.4461    0.4009 H   0  0  0  0  0  0  0  0  0  0  0  0
    1.1538   -0.1906   -2.3920 H   0  0  0  0  0  0  0  0  0  0  0  0
    1.5526   -1.8349   -2.0131 H   0  0  0  0  0  0  0  0  0  0  0  0
   -2.4396    1.9443   -0.7180 H   0  0  0  0  0  0  0  0  0  0  0  0
    3.2691    1.8655    1.5013 H   0  0  0  0  0  0  0  0  0  0  0  0
    5.5712   -3.3525   -0.3412 H   0  0  0  0  0  0  0  0  0  0  0  0
    3.9443   -3.8062   -1.3892 H   0  0  0  0  0  0  0  0  0  0  0  0
  1  2  2  0
  1  3  1  0
  2  4  1  0
  3 13  2  0
  4 15  2  0
  5  7  2  0
  5 11  1  0
  6  8  1  0
  6 12  2  0
  7 16  1  0
  8 17  1  0
  9 11  2  0
  9 14  1  0
 10 23  2  0
 10 24  1  0
 11 20  1  0
 12 13  1  0
 12 14  1  0
 13 15  1  0
 14 16  2  0
 15 21  1  0
 16 24  1  0
 17 18  2  0
 17 24  1  0
 18 19  1  0
 18 23  1  0
 19 22  2  3
 19 25  1  0
  1 26  1  0
  2 27  1  0
  3 28  1  0
  4 29  1  0
  5 30  1  0
  6 31  1  0
  7 32  1  0
  8 33  1  0
  8 34  1  0
  9 35  1  0
 10 36  1  0
 22 37  1  0
 25 38  1  0
M  END
