
     RDKit          3D

 46 49  0  0  0  0  0  0  0  0999 V2000
    3.4176   -2.1409    0.4136 C   0  0  0  0  0  0  0  0  0  0  0  0
    4.6258   -0.1709   -0.5182 C   0  0  0  0  0  0  0  0  0  0  0  0
    4.3532   -0.4555    1.9935 C   0  0  0  0  0  0  0  0  0  0  0  0
   -1.0269   -2.4644   -0.8666 C   0  0  0  0  0  0  0  0  0  0  0  0
   -0.7389   -1.4147    0.2232 C   0  0  0  0  0  0  0  0  0  0  0  0
   -4.9513    1.8619    1.0162 C   0  0  0  0  0  0  0  0  0  0  0  0
   -3.6022    2.2044    1.0596 C   0  0  0  0  0  0  0  0  0  0  0  0
   -1.0978   -1.6820   -2.1913 C   0  0  0  0  0  0  0  0  0  0  0  0
   -0.8080    3.0700    0.8901 C   0  0  0  0  0  0  0  0  0  0  0  0
   -5.3924    0.9413    0.0778 C   0  0  0  0  0  0  0  0  0  0  0  0
   -2.6888    1.6362    0.1468 C   0  0  0  0  0  0  0  0  0  0  0  0
   -0.2907   -0.2185   -0.5923 C   0  0  0  0  0  0  0  0  0  0  0  0
   -3.1523    0.7608   -0.8470 C   0  0  0  0  0  0  0  0  0  0  0  0
   -4.5126    0.3844   -0.8522 C   0  0  0  0  0  0  0  0  0  0  0  0
    0.8764    1.7826    0.5830 C   0  0  0  0  0  0  0  0  0  0  0  0
   -0.2310    1.1069    0.0562 C   0  0  0  0  0  0  0  0  0  0  0  0
   -2.3166    0.3404   -1.9937 C   0  0  0  0  0  0  0  0  0  0  0  0
    2.2795    1.3425    0.6747 C   0  0  0  0  0  0  0  0  0  0  0  0
    3.7109   -0.6459    0.6155 C   0  0  0  0  0  0  0  0  0  0  0  0
   -5.1517   -0.8279   -1.9156 Cl  0  0  0  0  0  0  0  0  0  0  0  0
   -6.6870    0.5908    0.0945 F   0  0  0  0  0  0  0  0  0  0  0  0
    0.4856    3.0131    1.0695 N   0  0  0  0  0  0  0  0  0  0  0  0
   -1.1032   -0.2859   -1.7798 N   0  0  0  0  0  0  0  0  0  0  0  0
   -1.3139    1.9284    0.3138 N   0  0  0  0  0  0  0  0  0  0  0  0
   -2.7633    0.4889   -3.1288 O   0  0  0  0  0  0  0  0  0  0  0  0
    3.2126    2.1082    0.8784 O   0  0  0  0  0  0  0  0  0  0  0  0
    2.4095   -0.0095    0.5458 O   0  0  0  0  0  0  0  0  0  0  0  0
    4.3319   -2.7429    0.4416 H   0  0  0  0  0  0  0  0  0  0  0  0
    2.9178   -2.3137   -0.5469 H   0  0  0  0  0  0  0  0  0  0  0  0
    2.7348   -2.5119    1.1869 H   0  0  0  0  0  0  0  0  0  0  0  0
    4.9274    0.8731   -0.3911 H   0  0  0  0  0  0  0  0  0  0  0  0
    5.5406   -0.7712   -0.5698 H   0  0  0  0  0  0  0  0  0  0  0  0
    4.1123   -0.2342   -1.4842 H   0  0  0  0  0  0  0  0  0  0  0  0
    4.6507    0.5829    2.1669 H   0  0  0  0  0  0  0  0  0  0  0  0
    5.2498   -1.0749    2.1039 H   0  0  0  0  0  0  0  0  0  0  0  0
    3.6482   -0.7175    2.7904 H   0  0  0  0  0  0  0  0  0  0  0  0
   -0.2377   -3.2224   -0.9122 H   0  0  0  0  0  0  0  0  0  0  0  0
   -1.9710   -2.9796   -0.6594 H   0  0  0  0  0  0  0  0  0  0  0  0
    0.0221   -1.7538    0.9329 H   0  0  0  0  0  0  0  0  0  0  0  0
   -1.6528   -1.2085    0.7919 H   0  0  0  0  0  0  0  0  0  0  0  0
   -5.6567    2.2809    1.7287 H   0  0  0  0  0  0  0  0  0  0  0  0
   -3.2848    2.8793    1.8530 H   0  0  0  0  0  0  0  0  0  0  0  0
   -0.1945   -1.8555   -2.7870 H   0  0  0  0  0  0  0  0  0  0  0  0
   -1.9742   -1.9612   -2.7850 H   0  0  0  0  0  0  0  0  0  0  0  0
   -1.4210    3.9237    1.1488 H   0  0  0  0  0  0  0  0  0  0  0  0
    0.7144   -0.4372   -0.9760 H   0  0  0  0  0  0  0  0  0  0  0  0
  1 19  1  0
  2 19  1  0
  3 19  1  0
  4  5  1  0
  4  8  1  0
  5 12  1  0
  6  7  2  0
  6 10  1  0
  7 11  1  0
  8 23  1  0
  9 22  2  0
  9 24  1  0
 10 14  2  0
 10 21  1  0
 11 13  2  0
 11 24  1  0
 12 16  1  0
 12 23  1  0
 13 14  1  0
 13 17  1  0
 14 20  1  0
 15 16  2  0
 15 18  1  0
 15 22  1  0
 16 24  1  0
 17 23  1  0
 17 25  2  0
 18 26  2  0
 18 27  1  0
 19 27  1  0
  1 28  1  0
  1 29  1  0
  1 30  1  0
  2 31  1  0
  2 32  1  0
  2 33  1  0
  3 34  1  0
  3 35  1  0
  3 36  1  0
  4 37  1  0
  4 38  1  0
  5 39  1  0
  5 40  1  0
  6 41  1  0
  7 42  1  0
  8 43  1  0
  8 44  1  0
  9 45  1  0
 12 46  1  0
M  END
