
     RDKit          3D

 41 44  0  0  0  0  0  0  0  0999 V2000
   -1.7093    3.1414   -2.5319 C   0  0  0  0  0  0  0  0  0  0  0  0
   -2.3114    2.6855   -1.3657 C   0  0  0  0  0  0  0  0  0  0  0  0
   -2.5149    1.1630    0.5913 C   0  0  0  0  0  0  0  0  0  0  0  0
   -1.8873    0.1332    1.5390 C   0  0  0  0  0  0  0  0  0  0  0  0
   -1.3447   -3.6441   -0.4753 C   0  0  0  0  0  0  0  0  0  0  0  0
   -0.5714   -2.5390   -0.8330 C   0  0  0  0  0  0  0  0  0  0  0  0
    2.2766    1.1377   -0.4319 C   0  0  0  0  0  0  0  0  0  0  0  0
    2.1459   -1.1681    0.5783 C   0  0  0  0  0  0  0  0  0  0  0  0
   -0.5660    2.5011   -2.9609 C   0  0  0  0  0  0  0  0  0  0  0  0
    3.6303    1.0911    0.3001 C   0  0  0  0  0  0  0  0  0  0  0  0
    2.8401   -0.6177    1.8393 C   0  0  0  0  0  0  0  0  0  0  0  0
   -2.4558   -2.3179    1.2217 C   0  0  0  0  0  0  0  0  0  0  0  0
    1.3958   -0.0820   -0.1733 C   0  0  0  0  0  0  0  0  0  0  0  0
   -1.7611    1.6093   -0.6458 C   0  0  0  0  0  0  0  0  0  0  0  0
   -1.6845   -1.2026    0.8673 C   0  0  0  0  0  0  0  0  0  0  0  0
   -2.2788   -3.5296    0.5524 C   0  0  0  0  0  0  0  0  0  0  0  0
   -0.7269   -1.3226   -0.1544 C   0  0  0  0  0  0  0  0  0  0  0  0
    0.0791   -0.1344   -0.5190 C   0  0  0  0  0  0  0  0  0  0  0  0
   -0.5909    1.0319   -1.1609 C   0  0  0  0  0  0  0  0  0  0  0  0
   -3.2324   -4.8931    0.9931 Cl  0  0  0  0  0  0  0  0  0  0  0  0
    3.4872    0.6926    1.6989 N   0  0  0  0  0  0  0  0  0  0  0  0
   -0.0025    1.4645   -2.3102 N   0  0  0  0  0  0  0  0  0  0  0  0
   -2.1266    3.9695   -3.0927 H   0  0  0  0  0  0  0  0  0  0  0  0
   -3.2216    3.1692   -1.0172 H   0  0  0  0  0  0  0  0  0  0  0  0
   -3.4882    0.7779    0.2568 H   0  0  0  0  0  0  0  0  0  0  0  0
   -2.7184    2.0607    1.1910 H   0  0  0  0  0  0  0  0  0  0  0  0
   -0.9351    0.4983    1.9441 H   0  0  0  0  0  0  0  0  0  0  0  0
   -2.5488    0.0088    2.4059 H   0  0  0  0  0  0  0  0  0  0  0  0
   -1.2157   -4.5853   -1.0024 H   0  0  0  0  0  0  0  0  0  0  0  0
    0.1526   -2.6244   -1.6404 H   0  0  0  0  0  0  0  0  0  0  0  0
    2.4829    1.2224   -1.5051 H   0  0  0  0  0  0  0  0  0  0  0  0
    1.7496    2.0443   -0.1084 H   0  0  0  0  0  0  0  0  0  0  0  0
    2.8995   -1.5919   -0.0988 H   0  0  0  0  0  0  0  0  0  0  0  0
    1.5129   -2.0041    0.8873 H   0  0  0  0  0  0  0  0  0  0  0  0
   -0.0560    2.8101   -3.8683 H   0  0  0  0  0  0  0  0  0  0  0  0
    4.3180    0.4080   -0.2147 H   0  0  0  0  0  0  0  0  0  0  0  0
    4.0904    2.0847    0.2568 H   0  0  0  0  0  0  0  0  0  0  0  0
    3.5855   -1.3517    2.1684 H   0  0  0  0  0  0  0  0  0  0  0  0
    2.1051   -0.5374    2.6490 H   0  0  0  0  0  0  0  0  0  0  0  0
   -3.1993   -2.2421    2.0111 H   0  0  0  0  0  0  0  0  0  0  0  0
    4.3960    0.6828    2.1583 H   0  0  0  0  0  0  0  0  0  0  0  0
  1  2  2  0
  1  9  1  0
  2 14  1  0
  3  4  1  0
  3 14  1  0
  4 15  1  0
  5  6  1  0
  5 16  2  0
  6 17  2  0
  7 10  1  0
  7 13  1  0
  8 11  1  0
  8 13  1  0
  9 22  2  0
 10 21  1  0
 11 21  1  0
 12 15  2  0
 12 16  1  0
 13 18  2  3
 14 19  2  0
 15 17  1  0
 16 20  1  0
 17 18  1  0
 18 19  1  0
 19 22  1  0
  1 23  1  0
  2 24  1  0
  3 25  1  0
  3 26  1  0
  4 27  1  0
  4 28  1  0
  5 29  1  0
  6 30  1  0
  7 31  1  0
  7 32  1  0
  8 33  1  0
  8 34  1  0
  9 35  1  0
 10 36  1  0
 10 37  1  0
 11 38  1  0
 11 39  1  0
 12 40  1  0
 21 41  1  0
M  END
