
     RDKit          3D

 46 50  0  0  0  0  0  0  0  0999 V2000
    4.7380    0.9941   -0.3532 C   0  0  0  0  0  0  0  0  0  0  0  0
   -2.1381   -2.3589   -1.7483 C   0  0  0  0  0  0  0  0  0  0  0  0
   -3.3120   -1.8203   -2.5023 C   0  0  0  0  0  0  0  0  0  0  0  0
    3.5902   -2.2603    0.8461 C   0  0  0  0  0  0  0  0  0  0  0  0
   -0.9298    1.5322    2.1573 C   0  0  0  0  0  0  0  0  0  0  0  0
   -0.3025   -0.3215    0.1831 C   0  0  0  0  0  0  0  0  0  0  0  0
    3.1117   -0.7466   -0.9181 C   0  0  0  0  0  0  0  0  0  0  0  0
    3.0471   -0.2244    1.9284 C   0  0  0  0  0  0  0  0  0  0  0  0
   -3.6495    0.8607   -0.9483 C   0  0  0  0  0  0  0  0  0  0  0  0
   -2.2564   -0.8726   -1.9833 C   0  0  0  0  0  0  0  0  0  0  0  0
    4.2213   -0.9030    1.1459 C   0  0  0  0  0  0  0  0  0  0  0  0
    2.3916   -1.6221    0.1370 C   0  0  0  0  0  0  0  0  0  0  0  0
   -1.8425    1.2716    1.1366 C   0  0  0  0  0  0  0  0  0  0  0  0
   -4.0139    1.7989   -0.0608 C   0  0  0  0  0  0  0  0  0  0  0  0
    0.2904    0.8633    2.1728 C   0  0  0  0  0  0  0  0  0  0  0  0
   -1.5519    0.3297    0.1361 C   0  0  0  0  0  0  0  0  0  0  0  0
    0.6578   -0.0703    1.1830 C   0  0  0  0  0  0  0  0  0  0  0  0
   -3.1385    1.9974    1.1179 C   0  0  0  0  0  0  0  0  0  0  0  0
   -5.2476    2.5460   -0.3295 C   0  0  0  0  0  0  0  0  0  0  0  0
    1.1217    1.1381    3.1916 F   0  0  0  0  0  0  0  0  0  0  0  0
    4.4040   -0.4174   -0.2546 N   0  0  0  0  0  0  0  0  0  0  0  0
    1.8619   -0.7407    1.2046 N   0  0  0  0  0  0  0  0  0  0  0  0
   -2.5194    0.0660   -0.8759 N   0  0  0  0  0  0  0  0  0  0  0  0
   -3.4502    2.7102    2.0654 O   0  0  0  0  0  0  0  0  0  0  0  0
   -6.1835    2.1529   -1.0072 O   0  0  0  0  0  0  0  0  0  0  0  0
   -5.2471    3.7822    0.1892 O   0  0  0  0  0  0  0  0  0  0  0  0
    3.9457    1.6557    0.0112 H   0  0  0  0  0  0  0  0  0  0  0  0
    4.9363    1.2571   -1.3980 H   0  0  0  0  0  0  0  0  0  0  0  0
    5.6534    1.2099    0.2081 H   0  0  0  0  0  0  0  0  0  0  0  0
   -1.3826   -2.9017   -2.3034 H   0  0  0  0  0  0  0  0  0  0  0  0
   -2.3144   -2.7375   -0.7478 H   0  0  0  0  0  0  0  0  0  0  0  0
   -4.2769   -1.8565   -2.0099 H   0  0  0  0  0  0  0  0  0  0  0  0
   -3.3543   -1.9921   -3.5714 H   0  0  0  0  0  0  0  0  0  0  0  0
    4.1941   -2.9031    0.1955 H   0  0  0  0  0  0  0  0  0  0  0  0
    3.3127   -2.8136    1.7505 H   0  0  0  0  0  0  0  0  0  0  0  0
   -1.1542    2.2463    2.9444 H   0  0  0  0  0  0  0  0  0  0  0  0
   -0.0704   -1.0448   -0.5897 H   0  0  0  0  0  0  0  0  0  0  0  0
    2.5208    0.1353   -1.1901 H   0  0  0  0  0  0  0  0  0  0  0  0
    3.3220   -1.3267   -1.8228 H   0  0  0  0  0  0  0  0  0  0  0  0
    3.0266   -0.5728    2.9671 H   0  0  0  0  0  0  0  0  0  0  0  0
    3.1294    0.8661    1.9072 H   0  0  0  0  0  0  0  0  0  0  0  0
   -4.2618    0.6700   -1.8278 H   0  0  0  0  0  0  0  0  0  0  0  0
   -1.5963   -0.4367   -2.7307 H   0  0  0  0  0  0  0  0  0  0  0  0
    5.1588   -0.9477    1.7054 H   0  0  0  0  0  0  0  0  0  0  0  0
    1.6786   -2.3499   -0.2570 H   0  0  0  0  0  0  0  0  0  0  0  0
   -6.1203    4.1571   -0.0437 H   0  0  0  0  0  0  0  0  0  0  0  0
  1 21  1  0
  2  3  1  0
  2 10  1  0
  3 10  1  0
  4 11  1  0
  4 12  1  0
  5 13  2  0
  5 15  1  0
  6 16  2  0
  6 17  1  0
  7 12  1  0
  7 21  1  0
  8 11  1  0
  8 22  1  0
  9 14  2  0
  9 23  1  0
 10 23  1  0
 11 21  1  0
 12 22  1  0
 13 16  1  0
 13 18  1  0
 14 18  1  0
 14 19  1  0
 15 17  2  0
 15 20  1  0
 16 23  1  0
 17 22  1  0
 18 24  2  0
 19 25  2  0
 19 26  1  0
  1 27  1  0
  1 28  1  0
  1 29  1  0
  2 30  1  0
  2 31  1  0
  3 32  1  0
  3 33  1  0
  4 34  1  0
  4 35  1  0
  5 36  1  0
  6 37  1  0
  7 38  1  0
  7 39  1  0
  8 40  1  0
  8 41  1  0
  9 42  1  0
 10 43  1  0
 11 44  1  0
 12 45  1  0
 26 46  1  0
M  END
