
     RDKit          3D

 43 45  0  0  0  0  0  0  0  0999 V2000
   -6.2185    1.1035   -1.0188 C   0  0  0  0  0  0  0  0  0  0  0  0
   -5.2590    0.5201   -1.8437 C   0  0  0  0  0  0  0  0  0  0  0  0
   -6.1697    0.8983    0.3590 C   0  0  0  0  0  0  0  0  0  0  0  0
    6.2759    0.6698    1.0622 C   0  0  0  0  0  0  0  0  0  0  0  0
    6.9432    1.3986    0.0791 C   0  0  0  0  0  0  0  0  0  0  0  0
   -4.2496   -0.2688   -1.2905 C   0  0  0  0  0  0  0  0  0  0  0  0
   -5.1599    0.1097    0.9143 C   0  0  0  0  0  0  0  0  0  0  0  0
    5.0406    0.0888    0.7774 C   0  0  0  0  0  0  0  0  0  0  0  0
    6.3770    1.5510   -1.1896 C   0  0  0  0  0  0  0  0  0  0  0  0
   -0.0580    0.8581    0.2831 C   0  0  0  0  0  0  0  0  0  0  0  0
    0.6743   -1.4967    0.7378 C   0  0  0  0  0  0  0  0  0  0  0  0
   -1.3501    0.3423    0.9243 C   0  0  0  0  0  0  0  0  0  0  0  0
   -0.7693   -1.9953    0.6268 C   0  0  0  0  0  0  0  0  0  0  0  0
   -3.0999   -1.3501    0.6927 C   0  0  0  0  0  0  0  0  0  0  0  0
   -4.1850   -0.4784    0.0956 C   0  0  0  0  0  0  0  0  0  0  0  0
    0.8931   -0.2688   -0.1391 C   0  0  0  0  0  0  0  0  0  0  0  0
    4.4700    0.2391   -0.4961 C   0  0  0  0  0  0  0  0  0  0  0  0
    5.1368    0.9712   -1.4842 C   0  0  0  0  0  0  0  0  0  0  0  0
    3.1775   -0.4191   -0.7428 C   0  0  0  0  0  0  0  0  0  0  0  0
    4.3537    1.2980   -3.3984 I   0  0  0  0  0  0  0  0  0  0  0  0
   -1.7394   -0.9315    0.3186 N   0  0  0  0  0  0  0  0  0  0  0  0
    3.0202   -1.3755   -1.4793 O   0  0  0  0  0  0  0  0  0  0  0  0
    2.2410    0.2194   -0.0001 O   0  0  0  0  0  0  0  0  0  0  0  0
   -7.0042    1.7179   -1.4500 H   0  0  0  0  0  0  0  0  0  0  0  0
   -5.2941    0.6792   -2.9181 H   0  0  0  0  0  0  0  0  0  0  0  0
   -6.9192    1.3524    1.0017 H   0  0  0  0  0  0  0  0  0  0  0  0
    6.7193    0.5526    2.0483 H   0  0  0  0  0  0  0  0  0  0  0  0
    7.9073    1.8517    0.2995 H   0  0  0  0  0  0  0  0  0  0  0  0
   -3.5015   -0.7174   -1.9413 H   0  0  0  0  0  0  0  0  0  0  0  0
   -5.1382   -0.0407    1.9909 H   0  0  0  0  0  0  0  0  0  0  0  0
    4.5248   -0.4842    1.5447 H   0  0  0  0  0  0  0  0  0  0  0  0
    6.9158    2.1284   -1.9379 H   0  0  0  0  0  0  0  0  0  0  0  0
   -0.2980    1.4537   -0.6075 H   0  0  0  0  0  0  0  0  0  0  0  0
    0.4363    1.5491    0.9776 H   0  0  0  0  0  0  0  0  0  0  0  0
    1.3694   -2.3014    0.4727 H   0  0  0  0  0  0  0  0  0  0  0  0
    0.9054   -1.2404    1.7806 H   0  0  0  0  0  0  0  0  0  0  0  0
   -1.2151    0.2287    2.0081 H   0  0  0  0  0  0  0  0  0  0  0  0
   -2.1167    1.1131    0.7849 H   0  0  0  0  0  0  0  0  0  0  0  0
   -1.0199   -2.5068    1.5654 H   0  0  0  0  0  0  0  0  0  0  0  0
   -0.8262   -2.7463   -0.1706 H   0  0  0  0  0  0  0  0  0  0  0  0
   -3.2891   -2.3687    0.3272 H   0  0  0  0  0  0  0  0  0  0  0  0
   -3.1980   -1.3894    1.7857 H   0  0  0  0  0  0  0  0  0  0  0  0
    0.6969   -0.5152   -1.1918 H   0  0  0  0  0  0  0  0  0  0  0  0
  1  2  2  0
  1  3  1  0
  2  6  1  0
  3  7  2  0
  4  5  2  0
  4  8  1  0
  5  9  1  0
  6 15  2  0
  7 15  1  0
  8 17  2  0
  9 18  2  0
 10 12  1  0
 10 16  1  0
 11 13  1  0
 11 16  1  0
 12 21  1  0
 13 21  1  0
 14 15  1  0
 14 21  1  0
 16 23  1  0
 17 18  1  0
 17 19  1  0
 18 20  1  0
 19 22  2  0
 19 23  1  0
  1 24  1  0
  2 25  1  0
  3 26  1  0
  4 27  1  0
  5 28  1  0
  6 29  1  0
  7 30  1  0
  8 31  1  0
  9 32  1  0
 10 33  1  0
 10 34  1  0
 11 35  1  0
 11 36  1  0
 12 37  1  0
 12 38  1  0
 13 39  1  0
 13 40  1  0
 14 41  1  0
 14 42  1  0
 16 43  1  0
M  END
