
     RDKit          3D

 41 43  0  0  0  0  0  0  0  0999 V2000
    4.6136   -0.9740   -0.0387 C   0  0  0  0  0  0  0  0  0  0  0  0
   -1.5620    3.1516    2.3450 C   0  0  0  0  0  0  0  0  0  0  0  0
   -2.8345   -3.5179   -0.4845 C   0  0  0  0  0  0  0  0  0  0  0  0
   -0.4523    2.4326    2.7684 C   0  0  0  0  0  0  0  0  0  0  0  0
   -1.6000   -3.7082    0.1228 C   0  0  0  0  0  0  0  0  0  0  0  0
    1.7501    1.1833   -1.2182 C   0  0  0  0  0  0  0  0  0  0  0  0
   -2.2239    2.7775    1.1758 C   0  0  0  0  0  0  0  0  0  0  0  0
   -3.1991   -2.2471   -0.9300 C   0  0  0  0  0  0  0  0  0  0  0  0
   -0.0004    1.3495    2.0152 C   0  0  0  0  0  0  0  0  0  0  0  0
   -0.7328   -2.6282    0.2826 C   0  0  0  0  0  0  0  0  0  0  0  0
    0.5758    0.1961   -1.3189 C   0  0  0  0  0  0  0  0  0  0  0  0
   -2.5578    1.3636   -0.7979 C   0  0  0  0  0  0  0  0  0  0  0  0
   -2.8006    0.1443   -1.3018 C   0  0  0  0  0  0  0  0  0  0  0  0
    2.9384    0.7238   -0.3672 C   0  0  0  0  0  0  0  0  0  0  0  0
   -1.7894    1.6787    0.4134 C   0  0  0  0  0  0  0  0  0  0  0  0
   -2.3420   -1.1450   -0.7654 C   0  0  0  0  0  0  0  0  0  0  0  0
   -0.6474    0.9650    0.8220 C   0  0  0  0  0  0  0  0  0  0  0  0
   -1.0868   -1.3354   -0.1564 C   0  0  0  0  0  0  0  0  0  0  0  0
   -0.0757   -0.2053    0.0281 C   0  0  0  0  0  0  0  0  0  0  0  0
    3.4518   -0.5689   -0.8177 N   0  0  0  0  0  0  0  0  0  0  0  0
    4.9676   -1.9475   -0.3918 H   0  0  0  0  0  0  0  0  0  0  0  0
    5.4360   -0.2587   -0.1420 H   0  0  0  0  0  0  0  0  0  0  0  0
    4.3615   -1.0803    1.0213 H   0  0  0  0  0  0  0  0  0  0  0  0
   -1.9201    3.9967    2.9263 H   0  0  0  0  0  0  0  0  0  0  0  0
   -3.5140   -4.3556   -0.6144 H   0  0  0  0  0  0  0  0  0  0  0  0
    0.0622    2.7113    3.6840 H   0  0  0  0  0  0  0  0  0  0  0  0
   -1.3077   -4.6958    0.4689 H   0  0  0  0  0  0  0  0  0  0  0  0
    1.3897    2.1432   -0.8294 H   0  0  0  0  0  0  0  0  0  0  0  0
    2.1060    1.3872   -2.2369 H   0  0  0  0  0  0  0  0  0  0  0  0
   -3.1007    3.3448    0.8703 H   0  0  0  0  0  0  0  0  0  0  0  0
   -4.1707   -2.1207   -1.4030 H   0  0  0  0  0  0  0  0  0  0  0  0
    0.8696    0.7999    2.3686 H   0  0  0  0  0  0  0  0  0  0  0  0
    0.2349   -2.8018    0.7498 H   0  0  0  0  0  0  0  0  0  0  0  0
    0.9217   -0.7116   -1.8316 H   0  0  0  0  0  0  0  0  0  0  0  0
   -0.1617    0.6411   -1.9959 H   0  0  0  0  0  0  0  0  0  0  0  0
   -2.9923    2.2209   -1.3082 H   0  0  0  0  0  0  0  0  0  0  0  0
   -3.4176    0.0782   -2.1959 H   0  0  0  0  0  0  0  0  0  0  0  0
    2.6443    0.6645    0.6852 H   0  0  0  0  0  0  0  0  0  0  0  0
    3.7249    1.4852   -0.4393 H   0  0  0  0  0  0  0  0  0  0  0  0
    0.7316   -0.6296    0.6401 H   0  0  0  0  0  0  0  0  0  0  0  0
    3.7100   -0.5075   -1.8027 H   0  0  0  0  0  0  0  0  0  0  0  0
  1 20  1  0
  2  4  2  0
  2  7  1  0
  3  5  2  0
  3  8  1  0
  4  9  1  0
  5 10  1  0
  6 11  1  0
  6 14  1  0
  7 15  2  0
  8 16  2  0
  9 17  2  0
 10 18  2  0
 11 19  1  0
 12 13  2  0
 12 15  1  0
 13 16  1  0
 14 20  1  0
 15 17  1  0
 16 18  1  0
 17 19  1  0
 18 19  1  0
  1 21  1  0
  1 22  1  0
  1 23  1  0
  2 24  1  0
  3 25  1  0
  4 26  1  0
  5 27  1  0
  6 28  1  0
  6 29  1  0
  7 30  1  0
  8 31  1  0
  9 32  1  0
 10 33  1  0
 11 34  1  0
 11 35  1  0
 12 36  1  0
 13 37  1  0
 14 38  1  0
 14 39  1  0
 19 40  1  0
 20 41  1  0
M  END
