
     RDKit          3D

 45 46  0  0  0  0  0  0  0  0999 V2000
    4.4524   -2.9637    1.8608 C   0  0  0  0  0  0  0  0  0  0  0  0
   -3.4013    4.1419   -0.4095 C   0  0  0  0  0  0  0  0  0  0  0  0
   -4.3696   -3.1949   -0.2782 C   0  0  0  0  0  0  0  0  0  0  0  0
    5.2730    0.8656   -1.3139 C   0  0  0  0  0  0  0  0  0  0  0  0
    6.1198   -0.0099   -0.6443 C   0  0  0  0  0  0  0  0  0  0  0  0
    3.8946    0.7578   -1.1440 C   0  0  0  0  0  0  0  0  0  0  0  0
    5.5899   -0.9961    0.1918 C   0  0  0  0  0  0  0  0  0  0  0  0
   -1.0285    0.6926   -0.9000 C   0  0  0  0  0  0  0  0  0  0  0  0
   -0.2115    0.9004    0.3838 C   0  0  0  0  0  0  0  0  0  0  0  0
   -3.1086   -0.6715   -0.4892 C   0  0  0  0  0  0  0  0  0  0  0  0
   -4.6597    1.6230   -0.1533 C   0  0  0  0  0  0  0  0  0  0  0  0
    1.8340   -0.3164   -0.1632 C   0  0  0  0  0  0  0  0  0  0  0  0
   -2.5153    0.6015   -0.6097 C   0  0  0  0  0  0  0  0  0  0  0  0
    3.3423   -0.2203   -0.2942 C   0  0  0  0  0  0  0  0  0  0  0  0
   -5.2375    0.3531   -0.0426 C   0  0  0  0  0  0  0  0  0  0  0  0
    4.2055   -1.1139    0.3701 C   0  0  0  0  0  0  0  0  0  0  0  0
   -3.2995    1.7557   -0.4346 C   0  0  0  0  0  0  0  0  0  0  0  0
   -4.4706   -0.8083   -0.2087 C   0  0  0  0  0  0  0  0  0  0  0  0
   -6.9313    0.2687    0.3097 Cl  0  0  0  0  0  0  0  0  0  0  0  0
    1.2349    0.9895    0.1486 N   0  0  0  0  0  0  0  0  0  0  0  0
    3.6065   -2.0611    1.1598 O   0  0  0  0  0  0  0  0  0  0  0  0
   -2.6400    2.9497   -0.5537 O   0  0  0  0  0  0  0  0  0  0  0  0
   -5.1222   -2.0063   -0.0774 O   0  0  0  0  0  0  0  0  0  0  0  0
    5.1024   -2.4319    2.5634 H   0  0  0  0  0  0  0  0  0  0  0  0
    5.0348   -3.5787    1.1669 H   0  0  0  0  0  0  0  0  0  0  0  0
    3.8138   -3.6351    2.4430 H   0  0  0  0  0  0  0  0  0  0  0  0
   -4.1788    4.2095   -1.1775 H   0  0  0  0  0  0  0  0  0  0  0  0
   -3.8285    4.2173    0.5958 H   0  0  0  0  0  0  0  0  0  0  0  0
   -2.7233    4.9897   -0.5470 H   0  0  0  0  0  0  0  0  0  0  0  0
   -3.9634   -3.2389   -1.2941 H   0  0  0  0  0  0  0  0  0  0  0  0
   -5.0478   -4.0447   -0.1545 H   0  0  0  0  0  0  0  0  0  0  0  0
   -3.5769   -3.2907    0.4709 H   0  0  0  0  0  0  0  0  0  0  0  0
    5.6815    1.6310   -1.9681 H   0  0  0  0  0  0  0  0  0  0  0  0
    7.1958    0.0706   -0.7744 H   0  0  0  0  0  0  0  0  0  0  0  0
    3.2373    1.4455   -1.6739 H   0  0  0  0  0  0  0  0  0  0  0  0
    6.2894   -1.6606    0.6876 H   0  0  0  0  0  0  0  0  0  0  0  0
   -0.7154   -0.2238   -1.4144 H   0  0  0  0  0  0  0  0  0  0  0  0
   -0.8389    1.5058   -1.6120 H   0  0  0  0  0  0  0  0  0  0  0  0
   -0.4318    0.1150    1.1182 H   0  0  0  0  0  0  0  0  0  0  0  0
   -0.5228    1.8426    0.8513 H   0  0  0  0  0  0  0  0  0  0  0  0
   -2.4754   -1.5439   -0.6199 H   0  0  0  0  0  0  0  0  0  0  0  0
   -5.2963    2.4898   -0.0127 H   0  0  0  0  0  0  0  0  0  0  0  0
    1.4505   -0.7046   -1.1135 H   0  0  0  0  0  0  0  0  0  0  0  0
    1.5562   -1.0303    0.6192 H   0  0  0  0  0  0  0  0  0  0  0  0
    1.6805    1.3292    1.0019 H   0  0  0  0  0  0  0  0  0  0  0  0
  1 21  1  0
  2 22  1  0
  3 23  1  0
  4  5  2  0
  4  6  1  0
  5  7  1  0
  6 14  2  0
  7 16  2  0
  8  9  1  0
  8 13  1  0
  9 20  1  0
 10 13  2  0
 10 18  1  0
 11 15  1  0
 11 17  2  0
 12 14  1  0
 12 20  1  0
 13 17  1  0
 14 16  1  0
 15 18  2  0
 15 19  1  0
 16 21  1  0
 17 22  1  0
 18 23  1  0
  1 24  1  0
  1 25  1  0
  1 26  1  0
  2 27  1  0
  2 28  1  0
  2 29  1  0
  3 30  1  0
  3 31  1  0
  3 32  1  0
  4 33  1  0
  5 34  1  0
  6 35  1  0
  7 36  1  0
  8 37  1  0
  8 38  1  0
  9 39  1  0
  9 40  1  0
 10 41  1  0
 11 42  1  0
 12 43  1  0
 12 44  1  0
 20 45  1  0
M  END
