
     RDKit          3D

 46 48  0  0  0  0  0  0  0  0999 V2000
    6.3786   -0.9059   -0.7780 C   0  0  0  0  0  0  0  0  0  0  0  0
   -6.5242   -0.1843    0.3650 C   0  0  0  0  0  0  0  0  0  0  0  0
   -6.5586   -1.5704    0.4430 C   0  0  0  0  0  0  0  0  0  0  0  0
    3.7278   -1.4192    1.8971 C   0  0  0  0  0  0  0  0  0  0  0  0
    4.7901   -1.6588    1.0247 C   0  0  0  0  0  0  0  0  0  0  0  0
    3.0718   -0.1883    1.8759 C   0  0  0  0  0  0  0  0  0  0  0  0
   -5.3186    0.4540    0.0862 C   0  0  0  0  0  0  0  0  0  0  0  0
   -1.9572    0.3605    0.8620 C   0  0  0  0  0  0  0  0  0  0  0  0
   -2.1040   -0.2998   -1.5656 C   0  0  0  0  0  0  0  0  0  0  0  0
   -5.3786   -2.2637    0.2400 C   0  0  0  0  0  0  0  0  0  0  0  0
   -0.4599    0.3205    0.5339 C   0  0  0  0  0  0  0  0  0  0  0  0
   -0.7962    0.4435   -1.8648 C   0  0  0  0  0  0  0  0  0  0  0  0
    4.5455    0.5671    0.1224 C   0  0  0  0  0  0  0  0  0  0  0  0
    1.2567    1.3005   -0.9120 C   0  0  0  0  0  0  0  0  0  0  0  0
    5.2041   -0.6703    0.1242 C   0  0  0  0  0  0  0  0  0  0  0  0
   -2.8456    0.3508   -0.3946 C   0  0  0  0  0  0  0  0  0  0  0  0
    3.4640    0.8050    0.9772 C   0  0  0  0  0  0  0  0  0  0  0  0
   -4.1753   -0.3177   -0.1137 C   0  0  0  0  0  0  0  0  0  0  0  0
    1.8517    2.2387    0.1273 C   0  0  0  0  0  0  0  0  0  0  0  0
   -4.1948   -1.6717   -0.0312 N   0  0  0  0  0  0  0  0  0  0  0  0
    2.8140    2.0442    0.9686 N   0  0  0  0  0  0  0  0  0  0  0  0
   -0.1890    1.0831   -0.6851 N   0  0  0  0  0  0  0  0  0  0  0  0
    1.2891    3.4608    0.1543 O   0  0  0  0  0  0  0  0  0  0  0  0
    6.2723   -0.3438   -1.7118 H   0  0  0  0  0  0  0  0  0  0  0  0
    7.3017   -0.5940   -0.2799 H   0  0  0  0  0  0  0  0  0  0  0  0
    6.4604   -1.9649   -1.0445 H   0  0  0  0  0  0  0  0  0  0  0  0
   -7.4278    0.3974    0.5221 H   0  0  0  0  0  0  0  0  0  0  0  0
   -7.4807   -2.0974    0.6586 H   0  0  0  0  0  0  0  0  0  0  0  0
    3.4171   -2.1874    2.6003 H   0  0  0  0  0  0  0  0  0  0  0  0
    5.3001   -2.6193    1.0591 H   0  0  0  0  0  0  0  0  0  0  0  0
    2.2557    0.0016    2.5670 H   0  0  0  0  0  0  0  0  0  0  0  0
   -5.2772    1.5370    0.0287 H   0  0  0  0  0  0  0  0  0  0  0  0
   -2.1854    1.2658    1.4403 H   0  0  0  0  0  0  0  0  0  0  0  0
   -2.1837   -0.4853    1.5237 H   0  0  0  0  0  0  0  0  0  0  0  0
   -1.8733   -1.3474   -1.3291 H   0  0  0  0  0  0  0  0  0  0  0  0
   -2.7320   -0.3149   -2.4650 H   0  0  0  0  0  0  0  0  0  0  0  0
   -5.3508   -3.3481    0.2926 H   0  0  0  0  0  0  0  0  0  0  0  0
   -0.1201   -0.7181    0.4272 H   0  0  0  0  0  0  0  0  0  0  0  0
    0.0712    0.7391    1.3958 H   0  0  0  0  0  0  0  0  0  0  0  0
   -0.9931    1.2260   -2.6077 H   0  0  0  0  0  0  0  0  0  0  0  0
   -0.1070   -0.2719   -2.3328 H   0  0  0  0  0  0  0  0  0  0  0  0
    4.8737    1.3589   -0.5465 H   0  0  0  0  0  0  0  0  0  0  0  0
    1.4107    1.7920   -1.8814 H   0  0  0  0  0  0  0  0  0  0  0  0
    1.7900    0.3459   -0.9461 H   0  0  0  0  0  0  0  0  0  0  0  0
   -3.0414    1.3942   -0.6813 H   0  0  0  0  0  0  0  0  0  0  0  0
    1.7283    3.9559    0.8646 H   0  0  0  0  0  0  0  0  0  0  0  0
  1 15  1  0
  2  3  2  0
  2  7  1  0
  3 10  1  0
  4  5  2  0
  4  6  1  0
  5 15  1  0
  6 17  2  0
  7 18  2  0
  8 11  1  0
  8 16  1  0
  9 12  1  0
  9 16  1  0
 10 20  2  0
 11 22  1  0
 12 22  1  0
 13 15  2  0
 13 17  1  0
 14 19  1  0
 14 22  1  0
 16 18  1  0
 17 21  1  0
 18 20  1  0
 19 21  2  3
 19 23  1  0
  1 24  1  0
  1 25  1  0
  1 26  1  0
  2 27  1  0
  3 28  1  0
  4 29  1  0
  5 30  1  0
  6 31  1  0
  7 32  1  0
  8 33  1  0
  8 34  1  0
  9 35  1  0
  9 36  1  0
 10 37  1  0
 11 38  1  0
 11 39  1  0
 12 40  1  0
 12 41  1  0
 13 42  1  0
 14 43  1  0
 14 44  1  0
 16 45  1  0
 23 46  1  0
M  END
