
     RDKit          3D

 47 49  0  0  0  0  0  0  0  0999 V2000
   -4.4354   -2.0344    1.2586 C   0  0  0  0  0  0  0  0  0  0  0  0
   -1.9571    1.0950   -3.8818 C   0  0  0  0  0  0  0  0  0  0  0  0
    7.1453   -0.3279   -1.2923 C   0  0  0  0  0  0  0  0  0  0  0  0
    6.2769   -1.4127   -1.1945 C   0  0  0  0  0  0  0  0  0  0  0  0
    6.6873    0.9557   -1.0031 C   0  0  0  0  0  0  0  0  0  0  0  0
    4.9507   -1.2141   -0.8023 C   0  0  0  0  0  0  0  0  0  0  0  0
    5.3611    1.1548   -0.6101 C   0  0  0  0  0  0  0  0  0  0  0  0
    3.0733    0.2371   -0.1114 C   0  0  0  0  0  0  0  0  0  0  0  0
   -3.6788    0.7577    2.1492 C   0  0  0  0  0  0  0  0  0  0  0  0
   -3.9754    0.8889    0.6543 C   0  0  0  0  0  0  0  0  0  0  0  0
    2.6533    1.1082    0.8194 C   0  0  0  0  0  0  0  0  0  0  0  0
   -1.3164   -0.1823    2.1157 C   0  0  0  0  0  0  0  0  0  0  0  0
    4.4825    0.0696   -0.4925 C   0  0  0  0  0  0  0  0  0  0  0  0
   -2.8145   -0.5008    2.2600 C   0  0  0  0  0  0  0  0  0  0  0  0
   -3.2473   -0.2971    0.0016 C   0  0  0  0  0  0  0  0  0  0  0  0
   -0.9947    0.5881    0.8191 C   0  0  0  0  0  0  0  0  0  0  0  0
    1.2427    1.2836    1.2225 C   0  0  0  0  0  0  0  0  0  0  0  0
   -1.7838    0.0149   -0.3727 C   0  0  0  0  0  0  0  0  0  0  0  0
   -1.7579    0.9654   -1.5499 C   0  0  0  0  0  0  0  0  0  0  0  0
   -3.1803   -1.3064    1.0802 N   0  0  0  0  0  0  0  0  0  0  0  0
    0.9123    2.0791    2.0891 O   0  0  0  0  0  0  0  0  0  0  0  0
   -1.5987    2.1762   -1.4800 O   0  0  0  0  0  0  0  0  0  0  0  0
   -1.9667    0.2781   -2.7101 O   0  0  0  0  0  0  0  0  0  0  0  0
    0.4153    0.4692    0.5246 O   0  0  0  0  0  0  0  0  0  0  0  0
   -5.2933   -1.3929    1.4842 H   0  0  0  0  0  0  0  0  0  0  0  0
   -4.6685   -2.6060    0.3535 H   0  0  0  0  0  0  0  0  0  0  0  0
   -4.3338   -2.7618    2.0716 H   0  0  0  0  0  0  0  0  0  0  0  0
   -2.7680    1.8290   -3.8428 H   0  0  0  0  0  0  0  0  0  0  0  0
   -0.9882    1.5913   -3.9957 H   0  0  0  0  0  0  0  0  0  0  0  0
   -2.1179    0.4469   -4.7477 H   0  0  0  0  0  0  0  0  0  0  0  0
    8.1767   -0.4818   -1.5985 H   0  0  0  0  0  0  0  0  0  0  0  0
    6.6303   -2.4145   -1.4245 H   0  0  0  0  0  0  0  0  0  0  0  0
    7.3605    1.8049   -1.0886 H   0  0  0  0  0  0  0  0  0  0  0  0
    4.2888   -2.0746   -0.7325 H   0  0  0  0  0  0  0  0  0  0  0  0
    5.0237    2.1688   -0.4098 H   0  0  0  0  0  0  0  0  0  0  0  0
    2.3700   -0.4163   -0.6225 H   0  0  0  0  0  0  0  0  0  0  0  0
   -4.6192    0.6324    2.6988 H   0  0  0  0  0  0  0  0  0  0  0  0
   -3.1817    1.6489    2.5461 H   0  0  0  0  0  0  0  0  0  0  0  0
   -5.0570    0.8099    0.4907 H   0  0  0  0  0  0  0  0  0  0  0  0
   -3.6615    1.8618    0.2652 H   0  0  0  0  0  0  0  0  0  0  0  0
    3.3417    1.7485    1.3600 H   0  0  0  0  0  0  0  0  0  0  0  0
   -0.7351   -1.1143    2.1431 H   0  0  0  0  0  0  0  0  0  0  0  0
   -0.9777    0.4000    2.9813 H   0  0  0  0  0  0  0  0  0  0  0  0
   -2.9774   -1.0316    3.2047 H   0  0  0  0  0  0  0  0  0  0  0  0
   -3.7881   -0.6619   -0.8797 H   0  0  0  0  0  0  0  0  0  0  0  0
   -1.2412    1.6496    0.9532 H   0  0  0  0  0  0  0  0  0  0  0  0
   -1.2767   -0.9040   -0.7035 H   0  0  0  0  0  0  0  0  0  0  0  0
  1 20  1  0
  2 23  1  0
  3  4  2  0
  3  5  1  0
  4  6  1  0
  5  7  2  0
  6 13  2  0
  7 13  1  0
  8 11  2  3
  8 13  1  0
  9 10  1  0
  9 14  1  0
 10 15  1  0
 11 17  1  0
 12 14  1  0
 12 16  1  0
 14 20  1  0
 15 18  1  0
 15 20  1  0
 16 18  1  0
 16 24  1  0
 17 21  2  0
 17 24  1  0
 18 19  1  0
 19 22  2  0
 19 23  1  0
  1 25  1  0
  1 26  1  0
  1 27  1  0
  2 28  1  0
  2 29  1  0
  2 30  1  0
  3 31  1  0
  4 32  1  0
  5 33  1  0
  6 34  1  0
  7 35  1  0
  8 36  1  0
  9 37  1  0
  9 38  1  0
 10 39  1  0
 10 40  1  0
 11 41  1  0
 12 42  1  0
 12 43  1  0
 14 44  1  0
 15 45  1  0
 16 46  1  0
 18 47  1  0
M  END
