
     RDKit          3D

 49 50  0  0  0  0  0  0  0  0999 V2000
   -6.1093   -2.0569   -3.4876 C   0  0  0  0  0  0  0  0  0  0  0  0
   -4.0853    1.9019    1.9937 C   0  0  0  0  0  0  0  0  0  0  0  0
    4.0440   -3.3986    1.5323 C   0  0  0  0  0  0  0  0  0  0  0  0
    4.6784    3.8655    0.2560 C   0  0  0  0  0  0  0  0  0  0  0  0
   -5.4083   -0.4457   -1.2593 C   0  0  0  0  0  0  0  0  0  0  0  0
   -4.9874    0.3150   -0.1597 C   0  0  0  0  0  0  0  0  0  0  0  0
    1.4708   -0.1375    0.8350 C   0  0  0  0  0  0  0  0  0  0  0  0
    1.0153   -0.6113   -0.5551 C   0  0  0  0  0  0  0  0  0  0  0  0
   -3.1267   -0.6477   -1.9786 C   0  0  0  0  0  0  0  0  0  0  0  0
    3.5202    1.3246    0.7024 C   0  0  0  0  0  0  0  0  0  0  0  0
    5.2089   -0.8450    1.1822 C   0  0  0  0  0  0  0  0  0  0  0  0
   -1.2021    0.3988   -0.7390 C   0  0  0  0  0  0  0  0  0  0  0  0
    2.9751    0.0407    0.9033 C   0  0  0  0  0  0  0  0  0  0  0  0
   -2.6836    0.1130   -0.8769 C   0  0  0  0  0  0  0  0  0  0  0  0
   -4.4783   -0.9337   -2.1738 C   0  0  0  0  0  0  0  0  0  0  0  0
    5.7363    0.4393    0.9918 C   0  0  0  0  0  0  0  0  0  0  0  0
   -3.6319    0.6007    0.0409 C   0  0  0  0  0  0  0  0  0  0  0  0
    3.8299   -1.0522    1.1368 C   0  0  0  0  0  0  0  0  0  0  0  0
    4.9009    1.5365    0.7433 C   0  0  0  0  0  0  0  0  0  0  0  0
    7.6283    0.6327    1.0720 Br  0  0  0  0  0  0  0  0  0  0  0  0
   -0.4280   -0.8446   -0.6622 N   0  0  0  0  0  0  0  0  0  0  0  0
   -4.7534   -1.6845   -3.2830 O   0  0  0  0  0  0  0  0  0  0  0  0
   -3.1434    1.3322    1.0919 O   0  0  0  0  0  0  0  0  0  0  0  0
    3.2158   -2.2652    1.3034 O   0  0  0  0  0  0  0  0  0  0  0  0
    5.5069    2.7502    0.5577 O   0  0  0  0  0  0  0  0  0  0  0  0
   -6.7318   -1.1767   -3.6870 H   0  0  0  0  0  0  0  0  0  0  0  0
   -6.1480   -2.6983   -4.3733 H   0  0  0  0  0  0  0  0  0  0  0  0
   -6.4978   -2.6342   -2.6402 H   0  0  0  0  0  0  0  0  0  0  0  0
   -4.7615    2.5915    1.4753 H   0  0  0  0  0  0  0  0  0  0  0  0
   -4.6413    1.1227    2.5264 H   0  0  0  0  0  0  0  0  0  0  0  0
   -3.5286    2.4800    2.7393 H   0  0  0  0  0  0  0  0  0  0  0  0
    3.3927   -4.2715    1.6357 H   0  0  0  0  0  0  0  0  0  0  0  0
    4.7091   -3.5803    0.6816 H   0  0  0  0  0  0  0  0  0  0  0  0
    4.6100   -3.2935    2.4642 H   0  0  0  0  0  0  0  0  0  0  0  0
    5.3267    4.7374    0.1245 H   0  0  0  0  0  0  0  0  0  0  0  0
    4.1335    3.7123   -0.6815 H   0  0  0  0  0  0  0  0  0  0  0  0
    3.9937    4.0827    1.0827 H   0  0  0  0  0  0  0  0  0  0  0  0
   -6.4706   -0.6350   -1.3707 H   0  0  0  0  0  0  0  0  0  0  0  0
   -5.7525    0.6701    0.5251 H   0  0  0  0  0  0  0  0  0  0  0  0
    0.9901    0.8134    1.0974 H   0  0  0  0  0  0  0  0  0  0  0  0
    1.1484   -0.8485    1.6077 H   0  0  0  0  0  0  0  0  0  0  0  0
    1.5101   -1.5625   -0.7886 H   0  0  0  0  0  0  0  0  0  0  0  0
    1.3449    0.0906   -1.3331 H   0  0  0  0  0  0  0  0  0  0  0  0
   -2.3970   -1.0295   -2.6914 H   0  0  0  0  0  0  0  0  0  0  0  0
    2.8348    2.1455    0.5134 H   0  0  0  0  0  0  0  0  0  0  0  0
    5.8957   -1.6648    1.3657 H   0  0  0  0  0  0  0  0  0  0  0  0
   -0.8924    0.9850   -1.6150 H   0  0  0  0  0  0  0  0  0  0  0  0
   -1.0077    1.0199    0.1416 H   0  0  0  0  0  0  0  0  0  0  0  0
   -0.7530   -1.3846    0.1408 H   0  0  0  0  0  0  0  0  0  0  0  0
  1 22  1  0
  2 23  1  0
  3 24  1  0
  4 25  1  0
  5  6  2  0
  5 15  1  0
  6 17  1  0
  7  8  1  0
  7 13  1  0
  8 21  1  0
  9 14  1  0
  9 15  2  0
 10 13  2  0
 10 19  1  0
 11 16  1  0
 11 18  2  0
 12 14  1  0
 12 21  1  0
 13 18  1  0
 14 17  2  0
 15 22  1  0
 16 19  2  0
 16 20  1  0
 17 23  1  0
 18 24  1  0
 19 25  1  0
  1 26  1  0
  1 27  1  0
  1 28  1  0
  2 29  1  0
  2 30  1  0
  2 31  1  0
  3 32  1  0
  3 33  1  0
  3 34  1  0
  4 35  1  0
  4 36  1  0
  4 37  1  0
  5 38  1  0
  6 39  1  0
  7 40  1  0
  7 41  1  0
  8 42  1  0
  8 43  1  0
  9 44  1  0
 10 45  1  0
 11 46  1  0
 12 47  1  0
 12 48  1  0
 21 49  1  0
M  END
