
     RDKit          3D

 48 49  0  0  0  0  0  0  0  0999 V2000
   -4.1739    3.4250   -1.4952 C   0  0  0  0  0  0  0  0  0  0  0  0
    4.3771   -3.5465   -1.0697 C   0  0  0  0  0  0  0  0  0  0  0  0
    3.9705    3.5749    0.9068 C   0  0  0  0  0  0  0  0  0  0  0  0
   -4.8044    2.1556   -0.9508 C   0  0  0  0  0  0  0  0  0  0  0  0
   -4.6318   -2.4649    1.0781 C   0  0  0  0  0  0  0  0  0  0  0  0
   -5.6797   -1.6348    0.6977 C   0  0  0  0  0  0  0  0  0  0  0  0
   -3.3168   -2.0382    0.9074 C   0  0  0  0  0  0  0  0  0  0  0  0
   -5.4148   -0.3769    0.1500 C   0  0  0  0  0  0  0  0  0  0  0  0
    1.4708   -0.9242    0.4942 C   0  0  0  0  0  0  0  0  0  0  0  0
    0.5875   -0.9175   -0.7621 C   0  0  0  0  0  0  0  0  0  0  0  0
    3.2200    0.8900    0.4267 C   0  0  0  0  0  0  0  0  0  0  0  0
    5.1252   -0.8565   -0.6236 C   0  0  0  0  0  0  0  0  0  0  0  0
   -1.5820   -0.3499    0.2043 C   0  0  0  0  0  0  0  0  0  0  0  0
    2.8824   -0.4578    0.1895 C   0  0  0  0  0  0  0  0  0  0  0  0
   -3.0300   -0.7789    0.3458 C   0  0  0  0  0  0  0  0  0  0  0  0
    5.4492    0.4825   -0.3772 C   0  0  0  0  0  0  0  0  0  0  0  0
   -4.0967    0.0625   -0.0261 C   0  0  0  0  0  0  0  0  0  0  0  0
    3.8439   -1.3339   -0.3451 C   0  0  0  0  0  0  0  0  0  0  0  0
    4.5021    1.3714    0.1496 C   0  0  0  0  0  0  0  0  0  0  0  0
    7.0591    1.0015   -0.7496 Cl  0  0  0  0  0  0  0  0  0  0  0  0
   -0.7899   -1.3597   -0.5122 N   0  0  0  0  0  0  0  0  0  0  0  0
    3.4268   -2.6204   -0.5585 O   0  0  0  0  0  0  0  0  0  0  0  0
    4.9096    2.6636    0.3525 O   0  0  0  0  0  0  0  0  0  0  0  0
   -3.7517    1.2842   -0.5433 O   0  0  0  0  0  0  0  0  0  0  0  0
   -3.5533    3.9053   -0.7314 H   0  0  0  0  0  0  0  0  0  0  0  0
   -3.5178    3.1970   -2.3418 H   0  0  0  0  0  0  0  0  0  0  0  0
   -4.9412    4.1319   -1.8231 H   0  0  0  0  0  0  0  0  0  0  0  0
    4.7178   -3.2510   -2.0674 H   0  0  0  0  0  0  0  0  0  0  0  0
    5.2203   -3.6676   -0.3817 H   0  0  0  0  0  0  0  0  0  0  0  0
    3.8809   -4.5174   -1.1619 H   0  0  0  0  0  0  0  0  0  0  0  0
    3.1115    3.7094    0.2412 H   0  0  0  0  0  0  0  0  0  0  0  0
    4.4664    4.5450    1.0091 H   0  0  0  0  0  0  0  0  0  0  0  0
    3.6531    3.2569    1.9054 H   0  0  0  0  0  0  0  0  0  0  0  0
   -5.4028    1.6871   -1.7406 H   0  0  0  0  0  0  0  0  0  0  0  0
   -5.4395    2.4114   -0.0950 H   0  0  0  0  0  0  0  0  0  0  0  0
   -4.8345   -3.4426    1.5068 H   0  0  0  0  0  0  0  0  0  0  0  0
   -6.7072   -1.9639    0.8292 H   0  0  0  0  0  0  0  0  0  0  0  0
   -2.5005   -2.6932    1.2081 H   0  0  0  0  0  0  0  0  0  0  0  0
   -6.2648    0.2376   -0.1264 H   0  0  0  0  0  0  0  0  0  0  0  0
    1.4991   -1.9272    0.9385 H   0  0  0  0  0  0  0  0  0  0  0  0
    1.0472   -0.2743    1.2692 H   0  0  0  0  0  0  0  0  0  0  0  0
    0.5909    0.0725   -1.2360 H   0  0  0  0  0  0  0  0  0  0  0  0
    1.0197   -1.6039   -1.5006 H   0  0  0  0  0  0  0  0  0  0  0  0
    2.4536    1.5442    0.8313 H   0  0  0  0  0  0  0  0  0  0  0  0
    5.8932   -1.5024   -1.0353 H   0  0  0  0  0  0  0  0  0  0  0  0
   -1.1903   -0.1930    1.2157 H   0  0  0  0  0  0  0  0  0  0  0  0
   -1.5079    0.6053   -0.3260 H   0  0  0  0  0  0  0  0  0  0  0  0
   -1.2463   -1.5181   -1.4114 H   0  0  0  0  0  0  0  0  0  0  0  0
  1  4  1  0
  2 22  1  0
  3 23  1  0
  4 24  1  0
  5  6  2  0
  5  7  1  0
  6  8  1  0
  7 15  2  0
  8 17  2  0
  9 10  1  0
  9 14  1  0
 10 21  1  0
 11 14  2  0
 11 19  1  0
 12 16  1  0
 12 18  2  0
 13 15  1  0
 13 21  1  0
 14 18  1  0
 15 17  1  0
 16 19  2  0
 16 20  1  0
 17 24  1  0
 18 22  1  0
 19 23  1  0
  1 25  1  0
  1 26  1  0
  1 27  1  0
  2 28  1  0
  2 29  1  0
  2 30  1  0
  3 31  1  0
  3 32  1  0
  3 33  1  0
  4 34  1  0
  4 35  1  0
  5 36  1  0
  6 37  1  0
  7 38  1  0
  8 39  1  0
  9 40  1  0
  9 41  1  0
 10 42  1  0
 10 43  1  0
 11 44  1  0
 12 45  1  0
 13 46  1  0
 13 47  1  0
 21 48  1  0
M  END
