
     RDKit          3D

 46 50  0  0  0  0  0  0  0  0999 V2000
   -4.0063    1.8693   -1.4222 C   0  0  0  0  0  0  0  0  0  0  0  0
   -2.6396    1.3505   -0.9934 C   0  0  0  0  0  0  0  0  0  0  0  0
    5.0213    1.6995   -1.1777 C   0  0  0  0  0  0  0  0  0  0  0  0
    3.9036    2.1821   -0.4889 C   0  0  0  0  0  0  0  0  0  0  0  0
    1.1441   -2.0805   -0.5418 C   0  0  0  0  0  0  0  0  0  0  0  0
   -0.0250   -2.6639    0.3746 C   0  0  0  0  0  0  0  0  0  0  0  0
   -3.4221    0.0394    1.0717 C   0  0  0  0  0  0  0  0  0  0  0  0
   -1.2178    0.6300    2.0555 C   0  0  0  0  0  0  0  0  0  0  0  0
    4.0078   -0.5009   -1.3811 C   0  0  0  0  0  0  0  0  0  0  0  0
   -1.9798   -1.8870    1.7891 C   0  0  0  0  0  0  0  0  0  0  0  0
   -2.4173   -0.3897    2.1457 C   0  0  0  0  0  0  0  0  0  0  0  0
   -2.7107   -0.0199   -0.2909 C   0  0  0  0  0  0  0  0  0  0  0  0
    5.0641    0.3799   -1.6134 C   0  0  0  0  0  0  0  0  0  0  0  0
    1.6435   -0.6455   -0.2845 C   0  0  0  0  0  0  0  0  0  0  0  0
    2.8722   -0.0403   -0.6861 C   0  0  0  0  0  0  0  0  0  0  0  0
   -0.3910    0.0636    0.9419 C   0  0  0  0  0  0  0  0  0  0  0  0
    2.8439    1.2947   -0.2578 C   0  0  0  0  0  0  0  0  0  0  0  0
    0.9221    0.3541    0.3631 C   0  0  0  0  0  0  0  0  0  0  0  0
   -1.2897   -0.6350   -0.1229 C   0  0  0  0  0  0  0  0  0  0  0  0
    1.6384    1.5059    0.3815 N   0  0  0  0  0  0  0  0  0  0  0  0
   -1.3916   -2.0080    0.4026 N   0  0  0  0  0  0  0  0  0  0  0  0
    6.1482   -0.1050   -2.2888 O   0  0  0  0  0  0  0  0  0  0  0  0
   -3.8950    2.8137   -1.9646 H   0  0  0  0  0  0  0  0  0  0  0  0
   -4.5044    1.1560   -2.0866 H   0  0  0  0  0  0  0  0  0  0  0  0
   -4.6590    2.0535   -0.5644 H   0  0  0  0  0  0  0  0  0  0  0  0
   -2.0151    1.2640   -1.8911 H   0  0  0  0  0  0  0  0  0  0  0  0
   -2.1594    2.0947   -0.3490 H   0  0  0  0  0  0  0  0  0  0  0  0
    5.8503    2.3754   -1.3649 H   0  0  0  0  0  0  0  0  0  0  0  0
    3.8630    3.2116   -0.1487 H   0  0  0  0  0  0  0  0  0  0  0  0
    0.8300   -2.1455   -1.5914 H   0  0  0  0  0  0  0  0  0  0  0  0
    2.0037   -2.7540   -0.4309 H   0  0  0  0  0  0  0  0  0  0  0  0
   -0.2017   -3.6949    0.0433 H   0  0  0  0  0  0  0  0  0  0  0  0
    0.3851   -2.7561    1.3889 H   0  0  0  0  0  0  0  0  0  0  0  0
   -4.2847   -0.6382    1.0720 H   0  0  0  0  0  0  0  0  0  0  0  0
   -3.8086    1.0392    1.2971 H   0  0  0  0  0  0  0  0  0  0  0  0
   -1.5506    1.6550    1.8660 H   0  0  0  0  0  0  0  0  0  0  0  0
   -0.6647    0.6433    3.0031 H   0  0  0  0  0  0  0  0  0  0  0  0
    4.0656   -1.5258   -1.7325 H   0  0  0  0  0  0  0  0  0  0  0  0
   -2.8631   -2.5353    1.8290 H   0  0  0  0  0  0  0  0  0  0  0  0
   -1.2923   -2.2429    2.5655 H   0  0  0  0  0  0  0  0  0  0  0  0
   -2.8790   -0.3522    3.1377 H   0  0  0  0  0  0  0  0  0  0  0  0
   -3.2893   -0.6877   -0.9455 H   0  0  0  0  0  0  0  0  0  0  0  0
    0.0599   -0.6967    1.6064 H   0  0  0  0  0  0  0  0  0  0  0  0
   -0.8588   -0.6506   -1.1312 H   0  0  0  0  0  0  0  0  0  0  0  0
    1.3523    2.3811    0.7981 H   0  0  0  0  0  0  0  0  0  0  0  0
    6.7978    0.6102   -2.3824 H   0  0  0  0  0  0  0  0  0  0  0  0
  1  2  1  0
  2 12  1  0
  3  4  1  0
  3 13  2  0
  4 17  2  0
  5  6  1  0
  5 14  1  0
  6 21  1  0
  7 11  1  0
  7 12  1  0
  8 11  1  0
  8 16  1  0
  9 13  1  0
  9 15  2  0
 10 11  1  0
 10 21  1  0
 12 19  1  0
 13 22  1  0
 14 15  1  0
 14 18  2  0
 15 17  1  0
 16 18  1  0
 16 19  1  0
 17 20  1  0
 18 20  1  0
 19 21  1  0
  1 23  1  0
  1 24  1  0
  1 25  1  0
  2 26  1  0
  2 27  1  0
  3 28  1  0
  4 29  1  0
  5 30  1  0
  5 31  1  0
  6 32  1  0
  6 33  1  0
  7 34  1  0
  7 35  1  0
  8 36  1  0
  8 37  1  0
  9 38  1  0
 10 39  1  0
 10 40  1  0
 11 41  1  0
 12 42  1  0
 16 43  1  0
 19 44  1  0
 20 45  1  0
 22 46  1  0
M  END
