
     RDKit          3D

 51 52  0  0  0  0  0  0  0  0999 V2000
    7.4256    0.8097   -0.9544 C   0  0  0  0  0  0  0  0  0  0  0  0
   -3.7472    2.2623    0.0399 C   0  0  0  0  0  0  0  0  0  0  0  0
   -5.6376    0.9453   -0.9373 C   0  0  0  0  0  0  0  0  0  0  0  0
   -3.4724    1.0972   -2.1541 C   0  0  0  0  0  0  0  0  0  0  0  0
    6.4292    0.0965   -1.4941 C   0  0  0  0  0  0  0  0  0  0  0  0
    5.2408    0.7051   -2.1832 C   0  0  0  0  0  0  0  0  0  0  0  0
    3.9517    0.6030   -1.3663 C   0  0  0  0  0  0  0  0  0  0  0  0
    2.3861   -0.9190    3.2805 C   0  0  0  0  0  0  0  0  0  0  0  0
    2.9227   -0.8593    1.9908 C   0  0  0  0  0  0  0  0  0  0  0  0
    3.4926   -0.8374   -1.1494 C   0  0  0  0  0  0  0  0  0  0  0  0
    0.1287   -1.0864    2.3896 C   0  0  0  0  0  0  0  0  0  0  0  0
    1.0123   -1.0356    3.4726 C   0  0  0  0  0  0  0  0  0  0  0  0
    0.6478   -1.0063    1.0798 C   0  0  0  0  0  0  0  0  0  0  0  0
    2.0281   -0.9120    0.9112 C   0  0  0  0  0  0  0  0  0  0  0  0
    0.1056   -1.0129   -0.2461 C   0  0  0  0  0  0  0  0  0  0  0  0
   -3.6115   -0.3090   -0.0400 C   0  0  0  0  0  0  0  0  0  0  0  0
   -4.2263   -0.5131    1.3470 C   0  0  0  0  0  0  0  0  0  0  0  0
   -1.3098   -1.0718   -0.6522 C   0  0  0  0  0  0  0  0  0  0  0  0
   -4.1069    0.9896   -0.7507 C   0  0  0  0  0  0  0  0  0  0  0  0
    0.3205   -1.1289    5.2320 Br  0  0  0  0  0  0  0  0  0  0  0  0
   -5.3254   -1.1380    1.5690 N   0  0  0  0  0  0  0  0  0  0  0  0
   -2.1614   -0.3365    0.1449 N   0  0  0  0  0  0  0  0  0  0  0  0
    1.0875   -0.9510   -1.1639 N   0  0  0  0  0  0  0  0  0  0  0  0
    2.2212   -0.8974   -0.4470 N   0  0  0  0  0  0  0  0  0  0  0  0
   -3.5329    0.0161    2.3698 O   0  0  0  0  0  0  0  0  0  0  0  0
   -1.7034   -1.7009   -1.6304 O   0  0  0  0  0  0  0  0  0  0  0  0
    7.4268    1.8954   -0.9716 H   0  0  0  0  0  0  0  0  0  0  0  0
    8.2710    0.3171   -0.4833 H   0  0  0  0  0  0  0  0  0  0  0  0
   -4.0796    3.1608   -0.4931 H   0  0  0  0  0  0  0  0  0  0  0  0
   -4.2266    2.2763    1.0240 H   0  0  0  0  0  0  0  0  0  0  0  0
   -2.6661    2.3538    0.1885 H   0  0  0  0  0  0  0  0  0  0  0  0
   -6.1654    0.9825    0.0211 H   0  0  0  0  0  0  0  0  0  0  0  0
   -5.9457    0.0328   -1.4597 H   0  0  0  0  0  0  0  0  0  0  0  0
   -5.9887    1.7994   -1.5282 H   0  0  0  0  0  0  0  0  0  0  0  0
   -2.3861    1.2238   -2.0997 H   0  0  0  0  0  0  0  0  0  0  0  0
   -3.8688    1.9598   -2.7026 H   0  0  0  0  0  0  0  0  0  0  0  0
   -3.6811    0.2026   -2.7511 H   0  0  0  0  0  0  0  0  0  0  0  0
    6.4878   -0.9897   -1.4630 H   0  0  0  0  0  0  0  0  0  0  0  0
    5.1084    0.2152   -3.1552 H   0  0  0  0  0  0  0  0  0  0  0  0
    5.4333    1.7640   -2.3972 H   0  0  0  0  0  0  0  0  0  0  0  0
    4.0846    1.1033   -0.3982 H   0  0  0  0  0  0  0  0  0  0  0  0
    3.1642    1.1588   -1.8917 H   0  0  0  0  0  0  0  0  0  0  0  0
    3.0593   -0.8813    4.1342 H   0  0  0  0  0  0  0  0  0  0  0  0
    3.9952   -0.7784    1.8413 H   0  0  0  0  0  0  0  0  0  0  0  0
    3.3637   -1.3557   -2.1071 H   0  0  0  0  0  0  0  0  0  0  0  0
    4.2163   -1.4112   -0.5610 H   0  0  0  0  0  0  0  0  0  0  0  0
   -0.9380   -1.1987    2.5572 H   0  0  0  0  0  0  0  0  0  0  0  0
   -3.8969   -1.1809   -0.6428 H   0  0  0  0  0  0  0  0  0  0  0  0
   -5.5647   -1.1742    2.5590 H   0  0  0  0  0  0  0  0  0  0  0  0
   -1.7880    0.2141    0.9068 H   0  0  0  0  0  0  0  0  0  0  0  0
   -3.9804   -0.1338    3.2155 H   0  0  0  0  0  0  0  0  0  0  0  0
  1  5  2  3
  2 19  1  0
  3 19  1  0
  4 19  1  0
  5  6  1  0
  6  7  1  0
  7 10  1  0
  8  9  2  0
  8 12  1  0
  9 14  1  0
 10 24  1  0
 11 12  2  0
 11 13  1  0
 12 20  1  0
 13 14  2  0
 13 15  1  0
 14 24  1  0
 15 18  1  0
 15 23  2  0
 16 17  1  0
 16 19  1  0
 16 22  1  0
 17 21  2  3
 17 25  1  0
 18 22  1  0
 18 26  2  0
 23 24  1  0
  1 27  1  0
  1 28  1  0
  2 29  1  0
  2 30  1  0
  2 31  1  0
  3 32  1  0
  3 33  1  0
  3 34  1  0
  4 35  1  0
  4 36  1  0
  4 37  1  0
  5 38  1  0
  6 39  1  0
  6 40  1  0
  7 41  1  0
  7 42  1  0
  8 43  1  0
  9 44  1  0
 10 45  1  0
 10 46  1  0
 11 47  1  0
 16 48  1  0
 21 49  1  0
 22 50  1  0
 25 51  1  0
M  END
