
     RDKit          3D

 49 52  0  0  0  0  0  0  0  0999 V2000
    2.1837   -1.2741   -1.4631 C   0  0  0  0  0  0  0  0  0  0  0  0
   -2.8191   -1.5618   -1.2423 C   0  0  0  0  0  0  0  0  0  0  0  0
   -2.1722    1.5444    0.8451 C   0  0  0  0  0  0  0  0  0  0  0  0
   -3.4176    0.9700    1.5301 C   0  0  0  0  0  0  0  0  0  0  0  0
    4.3015   -0.7402    0.8230 C   0  0  0  0  0  0  0  0  0  0  0  0
   -0.1679   -1.6192    0.4850 C   0  0  0  0  0  0  0  0  0  0  0  0
    2.7979   -0.9096    0.9554 C   0  0  0  0  0  0  0  0  0  0  0  0
   -1.6105   -1.4929    0.9765 C   0  0  0  0  0  0  0  0  0  0  0  0
    3.7029    1.5299   -0.1917 C   0  0  0  0  0  0  0  0  0  0  0  0
    0.1869    1.9413   -1.0555 C   0  0  0  0  0  0  0  0  0  0  0  0
    4.6358    0.7091    0.6159 C   0  0  0  0  0  0  0  0  0  0  0  0
   -0.4066    0.5489   -0.8021 C   0  0  0  0  0  0  0  0  0  0  0  0
   -1.8873    0.6460   -0.3722 C   0  0  0  0  0  0  0  0  0  0  0  0
    0.4732   -0.2449    0.1949 C   0  0  0  0  0  0  0  0  0  0  0  0
    2.5172    1.0651   -0.6367 C   0  0  0  0  0  0  0  0  0  0  0  0
    1.6141    1.8452   -1.5884 C   0  0  0  0  0  0  0  0  0  0  0  0
   -3.8183   -0.2627    0.7181 C   0  0  0  0  0  0  0  0  0  0  0  0
    1.9890   -0.3355   -0.2487 C   0  0  0  0  0  0  0  0  0  0  0  0
   -2.5216   -0.7100    0.0039 C   0  0  0  0  0  0  0  0  0  0  0  0
    2.1791    3.5012   -1.9652 Cl  0  0  0  0  0  0  0  0  0  0  0  0
    5.6801    1.2065    1.0288 O   0  0  0  0  0  0  0  0  0  0  0  0
   -4.8110    0.1251   -0.2290 O   0  0  0  0  0  0  0  0  0  0  0  0
    3.2072   -1.2212   -1.8523 H   0  0  0  0  0  0  0  0  0  0  0  0
    1.5157   -1.0246   -2.2931 H   0  0  0  0  0  0  0  0  0  0  0  0
    1.9982   -2.3204   -1.1978 H   0  0  0  0  0  0  0  0  0  0  0  0
   -3.3735   -2.4665   -0.9690 H   0  0  0  0  0  0  0  0  0  0  0  0
   -1.9051   -1.8746   -1.7558 H   0  0  0  0  0  0  0  0  0  0  0  0
   -3.4192   -1.0140   -1.9769 H   0  0  0  0  0  0  0  0  0  0  0  0
   -1.3419    1.5599    1.5583 H   0  0  0  0  0  0  0  0  0  0  0  0
   -2.3426    2.5802    0.5308 H   0  0  0  0  0  0  0  0  0  0  0  0
   -4.2154    1.7186    1.5796 H   0  0  0  0  0  0  0  0  0  0  0  0
   -3.1633    0.6853    2.5574 H   0  0  0  0  0  0  0  0  0  0  0  0
    4.7851   -1.0816    1.7448 H   0  0  0  0  0  0  0  0  0  0  0  0
    4.7078   -1.3207   -0.0109 H   0  0  0  0  0  0  0  0  0  0  0  0
   -0.1439   -2.2519   -0.4079 H   0  0  0  0  0  0  0  0  0  0  0  0
    0.3988   -2.1495    1.2573 H   0  0  0  0  0  0  0  0  0  0  0  0
    2.5856   -1.9763    1.0929 H   0  0  0  0  0  0  0  0  0  0  0  0
    2.4804   -0.4082    1.8806 H   0  0  0  0  0  0  0  0  0  0  0  0
   -1.5890   -1.0139    1.9632 H   0  0  0  0  0  0  0  0  0  0  0  0
   -2.0227   -2.4962    1.1442 H   0  0  0  0  0  0  0  0  0  0  0  0
    4.0979    2.5101   -0.4355 H   0  0  0  0  0  0  0  0  0  0  0  0
   -0.4447    2.4726   -1.7794 H   0  0  0  0  0  0  0  0  0  0  0  0
    0.1771    2.5329   -0.1307 H   0  0  0  0  0  0  0  0  0  0  0  0
   -0.4001    0.0121   -1.7602 H   0  0  0  0  0  0  0  0  0  0  0  0
   -2.4454    1.0738   -1.2188 H   0  0  0  0  0  0  0  0  0  0  0  0
    0.4623    0.3130    1.1427 H   0  0  0  0  0  0  0  0  0  0  0  0
    1.6040    1.3275   -2.5539 H   0  0  0  0  0  0  0  0  0  0  0  0
   -4.2440   -1.0516    1.3469 H   0  0  0  0  0  0  0  0  0  0  0  0
   -5.5983    0.4035    0.2697 H   0  0  0  0  0  0  0  0  0  0  0  0
  1 18  1  0
  2 19  1  0
  3  4  1  0
  3 13  1  0
  4 17  1  0
  5  7  1  0
  5 11  1  0
  6  8  1  0
  6 14  1  0
  7 18  1  0
  8 19  1  0
  9 11  1  0
  9 15  2  0
 10 12  1  0
 10 16  1  0
 11 21  2  0
 12 13  1  0
 12 14  1  0
 13 19  1  0
 14 18  1  0
 15 16  1  0
 15 18  1  0
 16 20  1  0
 17 19  1  0
 17 22  1  0
  1 23  1  0
  1 24  1  0
  1 25  1  0
  2 26  1  0
  2 27  1  0
  2 28  1  0
  3 29  1  0
  3 30  1  0
  4 31  1  0
  4 32  1  0
  5 33  1  0
  5 34  1  0
  6 35  1  0
  6 36  1  0
  7 37  1  0
  7 38  1  0
  8 39  1  0
  8 40  1  0
  9 41  1  0
 10 42  1  0
 10 43  1  0
 12 44  1  0
 13 45  1  0
 14 46  1  0
 16 47  1  0
 17 48  1  0
 22 49  1  0
M  END
