
     RDKit          3D

 52 53  0  0  0  0  0  0  0  0999 V2000
    4.4128    2.6671   -0.1506 C   0  0  0  0  0  0  0  0  0  0  0  0
   -3.9290    0.4725    1.7094 C   0  0  0  0  0  0  0  0  0  0  0  0
   -2.9256   -1.3453    2.9133 C   0  0  0  0  0  0  0  0  0  0  0  0
   -2.4930   -0.0561   -1.6980 C   0  0  0  0  0  0  0  0  0  0  0  0
   -3.2980   -2.2105   -0.9558 C   0  0  0  0  0  0  0  0  0  0  0  0
   -3.4402   -0.0533   -2.7255 C   0  0  0  0  0  0  0  0  0  0  0  0
   -4.2476   -2.2052   -1.9785 C   0  0  0  0  0  0  0  0  0  0  0  0
    5.2247   -0.4345   -2.0735 C   0  0  0  0  0  0  0  0  0  0  0  0
    6.1701   -1.4260   -1.9137 C   0  0  0  0  0  0  0  0  0  0  0  0
    3.1489    0.5898   -0.8722 C   0  0  0  0  0  0  0  0  0  0  0  0
   -1.3926   -1.1299    0.3134 C   0  0  0  0  0  0  0  0  0  0  0  0
   -0.2392    0.0854    2.2209 C   0  0  0  0  0  0  0  0  0  0  0  0
    4.5846   -1.3548   -0.0416 C   0  0  0  0  0  0  0  0  0  0  0  0
    3.3413    1.6429    0.2421 C   0  0  0  0  0  0  0  0  0  0  0  0
   -2.4188   -1.1286   -0.7971 C   0  0  0  0  0  0  0  0  0  0  0  0
    4.2962   -0.3801   -0.9809 C   0  0  0  0  0  0  0  0  0  0  0  0
   -1.5374    0.0084    1.3657 C   0  0  0  0  0  0  0  0  0  0  0  0
   -4.3127   -1.1276   -2.8540 C   0  0  0  0  0  0  0  0  0  0  0  0
    1.0818    1.8157    1.2135 C   0  0  0  0  0  0  0  0  0  0  0  0
    0.8894    0.5735    1.4319 N   0  0  0  0  0  0  0  0  0  0  0  0
    2.0950    2.3589    0.4991 N   0  0  0  0  0  0  0  0  0  0  0  0
   -2.6929   -0.0400    2.2998 N   0  0  0  0  0  0  0  0  0  0  0  0
   -5.2573   -1.1637   -3.8365 O   0  0  0  0  0  0  0  0  0  0  0  0
    0.2846    2.7942    1.6634 O   0  0  0  0  0  0  0  0  0  0  0  0
    5.9527   -2.2895   -0.4544 S   0  0  0  0  0  0  0  0  0  0  0  0
    4.1383    3.1932   -1.0731 H   0  0  0  0  0  0  0  0  0  0  0  0
    5.3861    2.1887   -0.3023 H   0  0  0  0  0  0  0  0  0  0  0  0
    4.5340    3.4230    0.6350 H   0  0  0  0  0  0  0  0  0  0  0  0
   -4.7062    0.5608    2.4782 H   0  0  0  0  0  0  0  0  0  0  0  0
   -3.7800    1.4823    1.3088 H   0  0  0  0  0  0  0  0  0  0  0  0
   -4.3227   -0.1643    0.9136 H   0  0  0  0  0  0  0  0  0  0  0  0
   -2.0255   -1.7200    3.4062 H   0  0  0  0  0  0  0  0  0  0  0  0
   -3.2698   -2.0964    2.1971 H   0  0  0  0  0  0  0  0  0  0  0  0
   -3.6876   -1.2635    3.6965 H   0  0  0  0  0  0  0  0  0  0  0  0
   -1.8070    0.7844   -1.6075 H   0  0  0  0  0  0  0  0  0  0  0  0
   -3.2530   -3.0657   -0.2818 H   0  0  0  0  0  0  0  0  0  0  0  0
   -3.4788    0.7878   -3.4089 H   0  0  0  0  0  0  0  0  0  0  0  0
   -4.9295   -3.0422   -2.0956 H   0  0  0  0  0  0  0  0  0  0  0  0
    5.1977    0.2176   -2.9388 H   0  0  0  0  0  0  0  0  0  0  0  0
    6.9780   -1.6863   -2.5823 H   0  0  0  0  0  0  0  0  0  0  0  0
    2.2379    0.0015   -0.7031 H   0  0  0  0  0  0  0  0  0  0  0  0
    2.9973    1.0933   -1.8355 H   0  0  0  0  0  0  0  0  0  0  0  0
   -1.3782   -2.1075    0.8123 H   0  0  0  0  0  0  0  0  0  0  0  0
   -0.4115   -1.0536   -0.1758 H   0  0  0  0  0  0  0  0  0  0  0  0
    0.0214   -0.9096    2.6004 H   0  0  0  0  0  0  0  0  0  0  0  0
   -0.3755    0.7063    3.1161 H   0  0  0  0  0  0  0  0  0  0  0  0
    4.0493   -1.5604    0.8788 H   0  0  0  0  0  0  0  0  0  0  0  0
    3.6677    1.1606    1.1732 H   0  0  0  0  0  0  0  0  0  0  0  0
   -1.6028    0.9625    0.8246 H   0  0  0  0  0  0  0  0  0  0  0  0
    2.1729    3.3590    0.6545 H   0  0  0  0  0  0  0  0  0  0  0  0
   -5.1718   -0.3625   -4.3744 H   0  0  0  0  0  0  0  0  0  0  0  0
   -0.4786    2.4476    2.1439 H   0  0  0  0  0  0  0  0  0  0  0  0
  1 14  1  0
  2 22  1  0
  3 22  1  0
  4  6  2  0
  4 15  1  0
  5  7  1  0
  5 15  2  0
  6 18  1  0
  7 18  2  0
  8  9  2  0
  8 16  1  0
  9 25  1  0
 10 14  1  0
 10 16  1  0
 11 15  1  0
 11 17  1  0
 12 17  1  0
 12 20  1  0
 13 16  2  0
 13 25  1  0
 14 21  1  0
 17 22  1  0
 18 23  1  0
 19 20  2  3
 19 21  1  0
 19 24  1  0
  1 26  1  0
  1 27  1  0
  1 28  1  0
  2 29  1  0
  2 30  1  0
  2 31  1  0
  3 32  1  0
  3 33  1  0
  3 34  1  0
  4 35  1  0
  5 36  1  0
  6 37  1  0
  7 38  1  0
  8 39  1  0
  9 40  1  0
 10 41  1  0
 10 42  1  0
 11 43  1  0
 11 44  1  0
 12 45  1  0
 12 46  1  0
 13 47  1  0
 14 48  1  0
 17 49  1  0
 21 50  1  0
 23 51  1  0
 24 52  1  0
M  END
