
     RDKit          3D

 50 51  0  0  0  0  0  0  0  0999 V2000
    6.7137    1.4199    0.0105 C   0  0  0  0  0  0  0  0  0  0  0  0
   -8.0692    1.9902   -0.0570 C   0  0  0  0  0  0  0  0  0  0  0  0
    3.4324   -2.4048    1.3467 C   0  0  0  0  0  0  0  0  0  0  0  0
    5.7539    1.2013   -1.1511 C   0  0  0  0  0  0  0  0  0  0  0  0
   -1.7680   -0.1306   -0.3979 C   0  0  0  0  0  0  0  0  0  0  0  0
    4.6840    0.1532   -0.8403 C   0  0  0  0  0  0  0  0  0  0  0  0
   -2.9122   -0.4570   -1.0221 C   0  0  0  0  0  0  0  0  0  0  0  0
   -5.8694    1.0915    0.7722 C   0  0  0  0  0  0  0  0  0  0  0  0
   -6.3330    1.0069   -1.5913 C   0  0  0  0  0  0  0  0  0  0  0  0
   -4.6176    0.5102    0.5470 C   0  0  0  0  0  0  0  0  0  0  0  0
   -5.0813    0.4249   -1.8150 C   0  0  0  0  0  0  0  0  0  0  0  0
   -0.4375   -0.7655   -0.6946 C   0  0  0  0  0  0  0  0  0  0  0  0
    0.4199   -0.7716    1.6113 C   0  0  0  0  0  0  0  0  0  0  0  0
    1.5697    0.2234    1.3825 C   0  0  0  0  0  0  0  0  0  0  0  0
    1.2508   -2.3608    0.0167 C   0  0  0  0  0  0  0  0  0  0  0  0
   -6.7410    1.3354   -0.2943 C   0  0  0  0  0  0  0  0  0  0  0  0
    2.6591   -1.7127    0.2169 C   0  0  0  0  0  0  0  0  0  0  0  0
   -4.2065    0.1817   -0.7501 C   0  0  0  0  0  0  0  0  0  0  0  0
    3.5895    0.6535    0.0946 C   0  0  0  0  0  0  0  0  0  0  0  0
    0.0663   -1.5744    0.4272 N   0  0  0  0  0  0  0  0  0  0  0  0
    2.6020   -0.2581    0.4587 N   0  0  0  0  0  0  0  0  0  0  0  0
    3.5601    1.8219    0.4833 O   0  0  0  0  0  0  0  0  0  0  0  0
    7.4791    2.1517   -0.2669 H   0  0  0  0  0  0  0  0  0  0  0  0
    7.2206    0.4876    0.2797 H   0  0  0  0  0  0  0  0  0  0  0  0
    6.1954    1.7957    0.8974 H   0  0  0  0  0  0  0  0  0  0  0  0
   -8.4653    1.7243    0.9287 H   0  0  0  0  0  0  0  0  0  0  0  0
   -8.8040    1.6640   -0.8005 H   0  0  0  0  0  0  0  0  0  0  0  0
   -7.9657    3.0780   -0.1153 H   0  0  0  0  0  0  0  0  0  0  0  0
    3.5525   -3.4726    1.1356 H   0  0  0  0  0  0  0  0  0  0  0  0
    2.9201   -2.3050    2.3088 H   0  0  0  0  0  0  0  0  0  0  0  0
    4.4315   -1.9732    1.4654 H   0  0  0  0  0  0  0  0  0  0  0  0
    6.3348    0.8625   -2.0172 H   0  0  0  0  0  0  0  0  0  0  0  0
    5.2922    2.1554   -1.4299 H   0  0  0  0  0  0  0  0  0  0  0  0
   -1.7654    0.6668    0.3396 H   0  0  0  0  0  0  0  0  0  0  0  0
    5.1620   -0.7335   -0.4137 H   0  0  0  0  0  0  0  0  0  0  0  0
    4.1998   -0.1291   -1.7828 H   0  0  0  0  0  0  0  0  0  0  0  0
   -2.9172   -1.2287   -1.7882 H   0  0  0  0  0  0  0  0  0  0  0  0
   -6.1599    1.3459    1.7889 H   0  0  0  0  0  0  0  0  0  0  0  0
   -6.9872    1.1997   -2.4385 H   0  0  0  0  0  0  0  0  0  0  0  0
   -3.9717    0.3085    1.3980 H   0  0  0  0  0  0  0  0  0  0  0  0
   -4.7917    0.1742   -2.8328 H   0  0  0  0  0  0  0  0  0  0  0  0
   -0.5614   -1.4145   -1.5719 H   0  0  0  0  0  0  0  0  0  0  0  0
    0.2701    0.0150   -0.9973 H   0  0  0  0  0  0  0  0  0  0  0  0
    0.7064   -1.4658    2.4125 H   0  0  0  0  0  0  0  0  0  0  0  0
   -0.4521   -0.2436    2.0138 H   0  0  0  0  0  0  0  0  0  0  0  0
    2.0534    0.4569    2.3386 H   0  0  0  0  0  0  0  0  0  0  0  0
    1.1724    1.1639    0.9813 H   0  0  0  0  0  0  0  0  0  0  0  0
    1.1546   -2.6682   -1.0334 H   0  0  0  0  0  0  0  0  0  0  0  0
    1.2140   -3.3090    0.5694 H   0  0  0  0  0  0  0  0  0  0  0  0
    3.2173   -1.8857   -0.7088 H   0  0  0  0  0  0  0  0  0  0  0  0
  1  4  1  0
  2 16  1  0
  3 17  1  0
  4  6  1  0
  5  7  2  3
  5 12  1  0
  6 19  1  0
  7 18  1  0
  8 10  2  0
  8 16  1  0
  9 11  1  0
  9 16  2  0
 10 18  1  0
 11 18  2  0
 12 20  1  0
 13 14  1  0
 13 20  1  0
 14 21  1  0
 15 17  1  0
 15 20  1  0
 17 21  1  0
 19 21  1  0
 19 22  2  0
  1 23  1  0
  1 24  1  0
  1 25  1  0
  2 26  1  0
  2 27  1  0
  2 28  1  0
  3 29  1  0
  3 30  1  0
  3 31  1  0
  4 32  1  0
  4 33  1  0
  5 34  1  0
  6 35  1  0
  6 36  1  0
  7 37  1  0
  8 38  1  0
  9 39  1  0
 10 40  1  0
 11 41  1  0
 12 42  1  0
 12 43  1  0
 13 44  1  0
 13 45  1  0
 14 46  1  0
 14 47  1  0
 15 48  1  0
 15 49  1  0
 17 50  1  0
M  END
