
     RDKit          3D

 52 53  0  0  0  0  0  0  0  0999 V2000
    6.7551    1.7573    0.5747 C   0  0  0  0  0  0  0  0  0  0  0  0
    7.1315    0.6394   -0.3854 C   0  0  0  0  0  0  0  0  0  0  0  0
    5.9852   -0.3361   -0.6643 C   0  0  0  0  0  0  0  0  0  0  0  0
    5.5584   -1.1335    0.5706 C   0  0  0  0  0  0  0  0  0  0  0  0
    4.5561   -2.2491    0.2556 C   0  0  0  0  0  0  0  0  0  0  0  0
    3.2385   -1.8002   -0.3838 C   0  0  0  0  0  0  0  0  0  0  0  0
    2.4451   -0.8182    0.4804 C   0  0  0  0  0  0  0  0  0  0  0  0
    1.0909   -0.4954   -0.1501 C   0  0  0  0  0  0  0  0  0  0  0  0
   -2.0569   -1.1310    1.1071 C   0  0  0  0  0  0  0  0  0  0  0  0
   -3.2472   -1.8377    1.3290 C   0  0  0  0  0  0  0  0  0  0  0  0
   -6.3222    1.2037   -1.2135 C   0  0  0  0  0  0  0  0  0  0  0  0
   -6.5779    2.4602   -0.3728 C   0  0  0  0  0  0  0  0  0  0  0  0
    0.2978    0.4939    0.7018 C   0  0  0  0  0  0  0  0  0  0  0  0
   -3.2369    0.5330   -0.1910 C   0  0  0  0  0  0  0  0  0  0  0  0
   -6.5526   -0.9725    0.1346 C   0  0  0  0  0  0  0  0  0  0  0  0
   -5.8062    0.0665   -0.3868 C   0  0  0  0  0  0  0  0  0  0  0  0
   -2.0435    0.0456    0.3604 C   0  0  0  0  0  0  0  0  0  0  0  0
   -4.4500   -0.1554    0.0166 C   0  0  0  0  0  0  0  0  0  0  0  0
   -4.4240   -1.3252    0.7736 C   0  0  0  0  0  0  0  0  0  0  0  0
   -7.0625    3.5702   -1.1960 N   0  0  0  0  0  0  0  0  0  0  0  0
   -5.7125   -1.8016    0.8272 N   0  0  0  0  0  0  0  0  0  0  0  0
   -0.9453    0.8118    0.0768 O   0  0  0  0  0  0  0  0  0  0  0  0
    6.5471    1.3721    1.5772 H   0  0  0  0  0  0  0  0  0  0  0  0
    7.5794    2.4727    0.6595 H   0  0  0  0  0  0  0  0  0  0  0  0
    5.8719    2.2985    0.2211 H   0  0  0  0  0  0  0  0  0  0  0  0
    7.4450    1.0873   -1.3359 H   0  0  0  0  0  0  0  0  0  0  0  0
    7.9977    0.0955    0.0090 H   0  0  0  0  0  0  0  0  0  0  0  0
    5.1323    0.2213   -1.0679 H   0  0  0  0  0  0  0  0  0  0  0  0
    6.3100   -1.0327   -1.4469 H   0  0  0  0  0  0  0  0  0  0  0  0
    6.4452   -1.5934    1.0246 H   0  0  0  0  0  0  0  0  0  0  0  0
    5.1364   -0.4648    1.3282 H   0  0  0  0  0  0  0  0  0  0  0  0
    5.0342   -2.9767   -0.4122 H   0  0  0  0  0  0  0  0  0  0  0  0
    4.3336   -2.7867    1.1859 H   0  0  0  0  0  0  0  0  0  0  0  0
    3.4298   -1.3585   -1.3685 H   0  0  0  0  0  0  0  0  0  0  0  0
    2.6279   -2.6944   -0.5625 H   0  0  0  0  0  0  0  0  0  0  0  0
    3.0105    0.1116    0.6080 H   0  0  0  0  0  0  0  0  0  0  0  0
    2.2919   -1.2471    1.4781 H   0  0  0  0  0  0  0  0  0  0  0  0
    0.5153   -1.4171   -0.2935 H   0  0  0  0  0  0  0  0  0  0  0  0
    1.2312   -0.0737   -1.1533 H   0  0  0  0  0  0  0  0  0  0  0  0
   -1.1487   -1.5450    1.5321 H   0  0  0  0  0  0  0  0  0  0  0  0
   -3.2468   -2.7539    1.9105 H   0  0  0  0  0  0  0  0  0  0  0  0
   -5.6003    1.4260   -2.0099 H   0  0  0  0  0  0  0  0  0  0  0  0
   -7.2507    0.8985   -1.7133 H   0  0  0  0  0  0  0  0  0  0  0  0
   -5.6594    2.7712    0.1383 H   0  0  0  0  0  0  0  0  0  0  0  0
   -7.3219    2.2458    0.4030 H   0  0  0  0  0  0  0  0  0  0  0  0
    0.8584    1.4345    0.7616 H   0  0  0  0  0  0  0  0  0  0  0  0
    0.1706    0.1592    1.7377 H   0  0  0  0  0  0  0  0  0  0  0  0
   -3.2224    1.4460   -0.7789 H   0  0  0  0  0  0  0  0  0  0  0  0
   -7.6106   -1.1902    0.0685 H   0  0  0  0  0  0  0  0  0  0  0  0
   -7.1870    4.3908   -0.6040 H   0  0  0  0  0  0  0  0  0  0  0  0
   -6.3484    3.8210   -1.8791 H   0  0  0  0  0  0  0  0  0  0  0  0
   -5.9930   -2.6439    1.3095 H   0  0  0  0  0  0  0  0  0  0  0  0
  1  2  1  0
  2  3  1  0
  3  4  1  0
  4  5  1  0
  5  6  1  0
  6  7  1  0
  7  8  1  0
  8 13  1  0
  9 10  2  0
  9 17  1  0
 10 19  1  0
 11 12  1  0
 11 16  1  0
 12 20  1  0
 13 22  1  0
 14 17  2  0
 14 18  1  0
 15 16  2  0
 15 21  1  0
 16 18  1  0
 17 22  1  0
 18 19  2  0
 19 21  1  0
  1 23  1  0
  1 24  1  0
  1 25  1  0
  2 26  1  0
  2 27  1  0
  3 28  1  0
  3 29  1  0
  4 30  1  0
  4 31  1  0
  5 32  1  0
  5 33  1  0
  6 34  1  0
  6 35  1  0
  7 36  1  0
  7 37  1  0
  8 38  1  0
  8 39  1  0
  9 40  1  0
 10 41  1  0
 11 42  1  0
 11 43  1  0
 12 44  1  0
 12 45  1  0
 13 46  1  0
 13 47  1  0
 14 48  1  0
 15 49  1  0
 20 50  1  0
 20 51  1  0
 21 52  1  0
M  END
