
     RDKit          3D

 40 43  0  0  0  0  0  0  0  0999 V2000
   -6.3557   -1.0219   -0.7384 C   0  0  0  0  0  0  0  0  0  0  0  0
    4.4074   -2.4967   -1.5523 C   0  0  0  0  0  0  0  0  0  0  0  0
    3.7545   -1.4257   -2.1608 C   0  0  0  0  0  0  0  0  0  0  0  0
    4.0036   -2.9346   -0.2920 C   0  0  0  0  0  0  0  0  0  0  0  0
    2.6882    2.7367    1.5581 C   0  0  0  0  0  0  0  0  0  0  0  0
    1.6654    3.6569    1.3890 C   0  0  0  0  0  0  0  0  0  0  0  0
    2.6949   -0.7914   -1.5093 C   0  0  0  0  0  0  0  0  0  0  0  0
    2.9440   -2.3019    0.3612 C   0  0  0  0  0  0  0  0  0  0  0  0
    2.4603    1.3881    1.2801 C   0  0  0  0  0  0  0  0  0  0  0  0
    0.4116    3.2261    0.9578 C   0  0  0  0  0  0  0  0  0  0  0  0
    0.0711   -1.2892    0.6786 C   0  0  0  0  0  0  0  0  0  0  0  0
   -1.1913   -0.8017    1.3048 C   0  0  0  0  0  0  0  0  0  0  0  0
   -2.0669    2.3058   -0.3441 C   0  0  0  0  0  0  0  0  0  0  0  0
    2.2775   -1.2264   -0.2442 C   0  0  0  0  0  0  0  0  0  0  0  0
    1.1568   -0.5280    0.4417 C   0  0  0  0  0  0  0  0  0  0  0  0
    1.2060    0.9161    0.8333 C   0  0  0  0  0  0  0  0  0  0  0  0
    0.1631    1.8616    0.6935 C   0  0  0  0  0  0  0  0  0  0  0  0
   -1.8166    0.3039    0.5382 C   0  0  0  0  0  0  0  0  0  0  0  0
   -3.0819    0.4410   -0.0225 C   0  0  0  0  0  0  0  0  0  0  0  0
   -4.1624   -0.5524   -0.0502 C   0  0  0  0  0  0  0  0  0  0  0  0
   -3.2135    1.7077   -0.5618 N   0  0  0  0  0  0  0  0  0  0  0  0
   -1.1582    1.4982    0.3029 N   0  0  0  0  0  0  0  0  0  0  0  0
   -4.0755   -1.6730    0.4424 O   0  0  0  0  0  0  0  0  0  0  0  0
   -5.2799   -0.0881   -0.6860 O   0  0  0  0  0  0  0  0  0  0  0  0
   -7.1894   -0.5500   -1.2657 H   0  0  0  0  0  0  0  0  0  0  0  0
   -6.0600   -1.9184   -1.2923 H   0  0  0  0  0  0  0  0  0  0  0  0
   -6.6887   -1.2816    0.2714 H   0  0  0  0  0  0  0  0  0  0  0  0
    5.2316   -2.9903   -2.0610 H   0  0  0  0  0  0  0  0  0  0  0  0
    4.0690   -1.0840   -3.1434 H   0  0  0  0  0  0  0  0  0  0  0  0
    4.5139   -3.7683    0.1833 H   0  0  0  0  0  0  0  0  0  0  0  0
    3.6682    3.0626    1.8974 H   0  0  0  0  0  0  0  0  0  0  0  0
    1.8374    4.7087    1.6042 H   0  0  0  0  0  0  0  0  0  0  0  0
    2.1931    0.0421   -1.9957 H   0  0  0  0  0  0  0  0  0  0  0  0
    2.6444   -2.6481    1.3476 H   0  0  0  0  0  0  0  0  0  0  0  0
    3.2941    0.6981    1.4070 H   0  0  0  0  0  0  0  0  0  0  0  0
   -0.3714    3.9772    0.8812 H   0  0  0  0  0  0  0  0  0  0  0  0
    0.0574   -2.3350    0.3743 H   0  0  0  0  0  0  0  0  0  0  0  0
   -0.9964   -0.4823    2.3367 H   0  0  0  0  0  0  0  0  0  0  0  0
   -1.8725   -1.6527    1.3949 H   0  0  0  0  0  0  0  0  0  0  0  0
   -1.8332    3.3106   -0.6685 H   0  0  0  0  0  0  0  0  0  0  0  0
  1 24  1  0
  2  3  2  0
  2  4  1  0
  3  7  1  0
  4  8  2  0
  5  6  2  0
  5  9  1  0
  6 10  1  0
  7 14  2  0
  8 14  1  0
  9 16  2  0
 10 17  2  0
 11 12  1  0
 11 15  2  0
 12 18  1  0
 13 21  2  0
 13 22  1  0
 14 15  1  0
 15 16  1  0
 16 17  1  0
 17 22  1  0
 18 19  2  0
 18 22  1  0
 19 20  1  0
 19 21  1  0
 20 23  2  0
 20 24  1  0
  1 25  1  0
  1 26  1  0
  1 27  1  0
  2 28  1  0
  3 29  1  0
  4 30  1  0
  5 31  1  0
  6 32  1  0
  7 33  1  0
  8 34  1  0
  9 35  1  0
 10 36  1  0
 11 37  1  0
 12 38  1  0
 12 39  1  0
 13 40  1  0
M  END
