
     RDKit          3D

 46 50  0  0  0  0  0  0  0  0999 V2000
   -4.1578    1.4708   -0.5676 C   0  0  0  0  0  0  0  0  0  0  0  0
    3.7498    2.7972    1.6392 C   0  0  0  0  0  0  0  0  0  0  0  0
    3.9986   -0.5806   -0.3411 C   0  0  0  0  0  0  0  0  0  0  0  0
   -0.9952    3.4817   -0.4781 C   0  0  0  0  0  0  0  0  0  0  0  0
   -2.3196    2.9375   -1.0098 C   0  0  0  0  0  0  0  0  0  0  0  0
   -2.1667   -0.4398    0.7315 C   0  0  0  0  0  0  0  0  0  0  0  0
    1.3642    2.7376   -0.0988 C   0  0  0  0  0  0  0  0  0  0  0  0
   -1.7899   -2.9343    0.6161 C   0  0  0  0  0  0  0  0  0  0  0  0
    0.8765   -2.5223   -0.2026 C   0  0  0  0  0  0  0  0  0  0  0  0
   -0.0598   -5.9118   -0.0659 C   0  0  0  0  0  0  0  0  0  0  0  0
    0.0227    2.3943   -0.2670 C   0  0  0  0  0  0  0  0  0  0  0  0
   -1.2677   -1.6335    0.4896 C   0  0  0  0  0  0  0  0  0  0  0  0
    0.0902   -1.4004    0.1186 C   0  0  0  0  0  0  0  0  0  0  0  0
   -1.8604    0.6658   -0.3074 C   0  0  0  0  0  0  0  0  0  0  0  0
   -0.9605   -3.9891    0.3207 C   0  0  0  0  0  0  0  0  0  0  0  0
    0.3331   -3.7875   -0.0864 C   0  0  0  0  0  0  0  0  0  0  0  0
    2.3059    1.7504    0.1746 C   0  0  0  0  0  0  0  0  0  0  0  0
   -0.3770    1.0459   -0.1610 C   0  0  0  0  0  0  0  0  0  0  0  0
    0.5838    0.0093    0.0477 C   0  0  0  0  0  0  0  0  0  0  0  0
    1.9389    0.3924    0.2105 C   0  0  0  0  0  0  0  0  0  0  0  0
   -2.7904    1.8226   -0.1704 N   0  0  0  0  0  0  0  0  0  0  0  0
    3.6111    2.1203    0.3857 O   0  0  0  0  0  0  0  0  0  0  0  0
    2.8684   -0.5702    0.5346 O   0  0  0  0  0  0  0  0  0  0  0  0
   -1.2979   -5.3053    0.3595 O   0  0  0  0  0  0  0  0  0  0  0  0
    0.9768   -4.9537   -0.3638 O   0  0  0  0  0  0  0  0  0  0  0  0
   -4.2042    1.0711   -1.5877 H   0  0  0  0  0  0  0  0  0  0  0  0
   -4.6001    0.7403    0.1159 H   0  0  0  0  0  0  0  0  0  0  0  0
   -4.8100    2.3506   -0.5174 H   0  0  0  0  0  0  0  0  0  0  0  0
    3.4784    3.8560    1.5306 H   0  0  0  0  0  0  0  0  0  0  0  0
    3.1545    2.3297    2.4371 H   0  0  0  0  0  0  0  0  0  0  0  0
    4.8047    2.7472    1.9296 H   0  0  0  0  0  0  0  0  0  0  0  0
    4.3063   -1.6211   -0.4728 H   0  0  0  0  0  0  0  0  0  0  0  0
    3.7771   -0.1732   -1.3334 H   0  0  0  0  0  0  0  0  0  0  0  0
    4.8343   -0.0451    0.1180 H   0  0  0  0  0  0  0  0  0  0  0  0
   -0.6071    4.2237   -1.1868 H   0  0  0  0  0  0  0  0  0  0  0  0
   -1.1622    3.9887    0.4814 H   0  0  0  0  0  0  0  0  0  0  0  0
   -3.0452    3.7604   -0.9972 H   0  0  0  0  0  0  0  0  0  0  0  0
   -2.2107    2.6198   -2.0561 H   0  0  0  0  0  0  0  0  0  0  0  0
   -2.0100   -0.0787    1.7563 H   0  0  0  0  0  0  0  0  0  0  0  0
   -3.2079   -0.7684    0.6523 H   0  0  0  0  0  0  0  0  0  0  0  0
    1.6736    3.7778   -0.1601 H   0  0  0  0  0  0  0  0  0  0  0  0
   -2.8180   -3.1114    0.9134 H   0  0  0  0  0  0  0  0  0  0  0  0
    1.8920   -2.4306   -0.5609 H   0  0  0  0  0  0  0  0  0  0  0  0
   -0.2535   -6.5081   -0.9651 H   0  0  0  0  0  0  0  0  0  0  0  0
    0.2960   -6.5783    0.7281 H   0  0  0  0  0  0  0  0  0  0  0  0
   -1.9653    0.2521   -1.3225 H   0  0  0  0  0  0  0  0  0  0  0  0
  1 21  1  0
  2 22  1  0
  3 23  1  0
  4  5  1  0
  4 11  1  0
  5 21  1  0
  6 12  1  0
  6 14  1  0
  7 11  2  0
  7 17  1  0
  8 12  2  0
  8 15  1  0
  9 13  2  0
  9 16  1  0
 10 24  1  0
 10 25  1  0
 11 18  1  0
 12 13  1  0
 13 19  1  0
 14 18  1  0
 14 21  1  0
 15 16  2  0
 15 24  1  0
 16 25  1  0
 17 20  2  0
 17 22  1  0
 18 19  2  0
 19 20  1  0
 20 23  1  0
  1 26  1  0
  1 27  1  0
  1 28  1  0
  2 29  1  0
  2 30  1  0
  2 31  1  0
  3 32  1  0
  3 33  1  0
  3 34  1  0
  4 35  1  0
  4 36  1  0
  5 37  1  0
  5 38  1  0
  6 39  1  0
  6 40  1  0
  7 41  1  0
  8 42  1  0
  9 43  1  0
 10 44  1  0
 10 45  1  0
 14 46  1  0
M  END
