
     RDKit          3D

 50 52  0  0  0  0  0  0  0  0999 V2000
   -4.5352    0.4501    0.9725 C   0  0  0  0  0  0  0  0  0  0  0  0
   -3.0409   -3.4859    0.2809 C   0  0  0  0  0  0  0  0  0  0  0  0
   -4.0896   -0.5699   -0.0718 C   0  0  0  0  0  0  0  0  0  0  0  0
   -2.4616   -2.3178   -0.5111 C   0  0  0  0  0  0  0  0  0  0  0  0
    1.9675   -2.8388   -1.3762 C   0  0  0  0  0  0  0  0  0  0  0  0
    3.6934   -1.2563   -0.7786 C   0  0  0  0  0  0  0  0  0  0  0  0
    2.7197   -3.8713   -0.8108 C   0  0  0  0  0  0  0  0  0  0  0  0
    4.4461   -2.2876   -0.2130 C   0  0  0  0  0  0  0  0  0  0  0  0
    0.4401    4.0759    1.8863 C   0  0  0  0  0  0  0  0  0  0  0  0
    0.0420    2.7681    1.5858 C   0  0  0  0  0  0  0  0  0  0  0  0
   -1.7344   -0.0067   -0.3151 C   0  0  0  0  0  0  0  0  0  0  0  0
   -0.3724   -0.1398    0.3827 C   0  0  0  0  0  0  0  0  0  0  0  0
    1.6270   -0.4042   -1.9829 C   0  0  0  0  0  0  0  0  0  0  0  0
    2.0743    4.0651    0.0619 C   0  0  0  0  0  0  0  0  0  0  0  0
    2.4389   -1.5169   -1.3531 C   0  0  0  0  0  0  0  0  0  0  0  0
    3.9540   -3.5900   -0.2293 C   0  0  0  0  0  0  0  0  0  0  0  0
    1.4409    4.7110    1.1348 C   0  0  0  0  0  0  0  0  0  0  0  0
    1.6770    2.7558   -0.2403 C   0  0  0  0  0  0  0  0  0  0  0  0
    0.6858    2.1367    0.5139 C   0  0  0  0  0  0  0  0  0  0  0  0
    1.4536    0.7984   -1.1023 C   0  0  0  0  0  0  0  0  0  0  0  0
    4.9705   -4.9879    0.5359 Br  0  0  0  0  0  0  0  0  0  0  0  0
    2.1312    1.9244   -1.2277 N   0  0  0  0  0  0  0  0  0  0  0  0
   -2.7020   -1.0225    0.1565 N   0  0  0  0  0  0  0  0  0  0  0  0
    0.5580    0.8876   -0.0563 N   0  0  0  0  0  0  0  0  0  0  0  0
    1.8354    6.0838    1.4745 N   0  0  0  0  0  4  0  0  0  0  0  0
    1.2477    6.6357    2.4162 O   0  0  0  0  0  1  0  0  0  0  0  0
    2.7308    6.6128    0.8010 O   0  0  0  0  0  0  0  0  0  0  0  0
   -3.9779    1.3885    0.9048 H   0  0  0  0  0  0  0  0  0  0  0  0
   -4.4154    0.0513    1.9855 H   0  0  0  0  0  0  0  0  0  0  0  0
   -5.5948    0.6876    0.8307 H   0  0  0  0  0  0  0  0  0  0  0  0
   -2.6538   -3.4951    1.3054 H   0  0  0  0  0  0  0  0  0  0  0  0
   -2.7564   -4.4321   -0.1915 H   0  0  0  0  0  0  0  0  0  0  0  0
   -4.1331   -3.4581    0.3261 H   0  0  0  0  0  0  0  0  0  0  0  0
   -4.7878   -1.4102    0.0059 H   0  0  0  0  0  0  0  0  0  0  0  0
   -4.2104   -0.1587   -1.0821 H   0  0  0  0  0  0  0  0  0  0  0  0
   -1.3866   -2.5105   -0.5979 H   0  0  0  0  0  0  0  0  0  0  0  0
   -2.8583   -2.3162   -1.5343 H   0  0  0  0  0  0  0  0  0  0  0  0
    1.0112   -3.0773   -1.8364 H   0  0  0  0  0  0  0  0  0  0  0  0
    4.0923   -0.2420   -0.7684 H   0  0  0  0  0  0  0  0  0  0  0  0
    2.3382   -4.8887   -0.8333 H   0  0  0  0  0  0  0  0  0  0  0  0
    5.4120   -2.0629    0.2317 H   0  0  0  0  0  0  0  0  0  0  0  0
   -0.0446    4.5877    2.7170 H   0  0  0  0  0  0  0  0  0  0  0  0
   -0.7320    2.2746    2.1655 H   0  0  0  0  0  0  0  0  0  0  0  0
   -2.1046    1.0029   -0.1029 H   0  0  0  0  0  0  0  0  0  0  0  0
   -1.6225   -0.0549   -1.4065 H   0  0  0  0  0  0  0  0  0  0  0  0
   -0.4835   -0.0452    1.4693 H   0  0  0  0  0  0  0  0  0  0  0  0
    0.0919   -1.1116    0.2031 H   0  0  0  0  0  0  0  0  0  0  0  0
    2.1306   -0.1020   -2.9100 H   0  0  0  0  0  0  0  0  0  0  0  0
    0.6393   -0.7749   -2.2826 H   0  0  0  0  0  0  0  0  0  0  0  0
    2.8485    4.5379   -0.5331 H   0  0  0  0  0  0  0  0  0  0  0  0
  1  3  1  0
  2  4  1  0
  3 23  1  0
  4 23  1  0
  5  7  2  0
  5 15  1  0
  6  8  1  0
  6 15  2  0
  7 16  1  0
  8 16  2  0
  9 10  2  0
  9 17  1  0
 10 19  1  0
 11 12  1  0
 11 23  1  0
 12 24  1  0
 13 15  1  0
 13 20  1  0
 14 17  2  0
 14 18  1  0
 16 21  1  0
 17 25  1  0
 18 19  2  0
 18 22  1  0
 19 24  1  0
 20 22  2  0
 20 24  1  0
 25 26  1  0
 25 27  2  0
  1 28  1  0
  1 29  1  0
  1 30  1  0
  2 31  1  0
  2 32  1  0
  2 33  1  0
  3 34  1  0
  3 35  1  0
  4 36  1  0
  4 37  1  0
  5 38  1  0
  6 39  1  0
  7 40  1  0
  8 41  1  0
  9 42  1  0
 10 43  1  0
 11 44  1  0
 11 45  1  0
 12 46  1  0
 12 47  1  0
 13 48  1  0
 13 49  1  0
 14 50  1  0
M  CHG  2  25   1  26  -1
M  END
