
     RDKit          3D

 44 46  0  0  0  0  0  0  0  0999 V2000
    4.8625    0.8269    0.2105 C   0  0  0  0  0  0  0  0  0  0  0  0
    4.4535    0.1122    2.4596 C   0  0  0  0  0  0  0  0  0  0  0  0
   -3.1808   -3.5646   -1.2944 C   0  0  0  0  0  0  0  0  0  0  0  0
   -2.1728    3.7002    0.2381 C   0  0  0  0  0  0  0  0  0  0  0  0
   -2.4367   -3.0571   -2.3584 C   0  0  0  0  0  0  0  0  0  0  0  0
   -1.2488    3.5195   -0.7808 C   0  0  0  0  0  0  0  0  0  0  0  0
    1.8645    0.4283   -0.3030 C   0  0  0  0  0  0  0  0  0  0  0  0
   -3.0917   -2.9761   -0.0317 C   0  0  0  0  0  0  0  0  0  0  0  0
   -2.6131    2.6011    0.9745 C   0  0  0  0  0  0  0  0  0  0  0  0
   -1.5980   -1.9600   -2.1619 C   0  0  0  0  0  0  0  0  0  0  0  0
   -0.7589    2.2419   -1.0495 C   0  0  0  0  0  0  0  0  0  0  0  0
    0.7102   -0.4764   -0.6624 C   0  0  0  0  0  0  0  0  0  0  0  0
   -2.1497   -1.2180    1.5325 C   0  0  0  0  0  0  0  0  0  0  0  0
   -2.7530    0.1901    1.5538 C   0  0  0  0  0  0  0  0  0  0  0  0
    2.7326   -0.2001    0.8048 C   0  0  0  0  0  0  0  0  0  0  0  0
   -2.2533   -1.8729    0.1766 C   0  0  0  0  0  0  0  0  0  0  0  0
   -2.1275    1.2987    0.7234 C   0  0  0  0  0  0  0  0  0  0  0  0
   -1.5008   -1.3670   -0.8969 C   0  0  0  0  0  0  0  0  0  0  0  0
   -1.1643    1.1242   -0.2927 C   0  0  0  0  0  0  0  0  0  0  0  0
   -0.6150   -0.2049   -0.6578 C   0  0  0  0  0  0  0  0  0  0  0  0
    3.8426    0.6660    1.2482 N   0  0  0  0  0  0  0  0  0  0  0  0
    4.4619    1.3508   -0.6626 H   0  0  0  0  0  0  0  0  0  0  0  0
    5.6899    1.4452    0.5777 H   0  0  0  0  0  0  0  0  0  0  0  0
    5.2742   -0.1344   -0.1175 H   0  0  0  0  0  0  0  0  0  0  0  0
    5.2506    0.7695    2.8248 H   0  0  0  0  0  0  0  0  0  0  0  0
    3.7157    0.0417    3.2667 H   0  0  0  0  0  0  0  0  0  0  0  0
    4.8776   -0.8843    2.2902 H   0  0  0  0  0  0  0  0  0  0  0  0
   -3.8353   -4.4186   -1.4492 H   0  0  0  0  0  0  0  0  0  0  0  0
   -2.5635    4.6912    0.4521 H   0  0  0  0  0  0  0  0  0  0  0  0
   -2.5117   -3.5135   -3.3417 H   0  0  0  0  0  0  0  0  0  0  0  0
   -0.9118    4.3666   -1.3715 H   0  0  0  0  0  0  0  0  0  0  0  0
    1.5288    1.4113    0.0387 H   0  0  0  0  0  0  0  0  0  0  0  0
    2.4546    0.5824   -1.2129 H   0  0  0  0  0  0  0  0  0  0  0  0
   -3.6826   -3.3820    0.7857 H   0  0  0  0  0  0  0  0  0  0  0  0
   -3.3584    2.7611    1.7520 H   0  0  0  0  0  0  0  0  0  0  0  0
   -1.0257   -1.5645   -2.9972 H   0  0  0  0  0  0  0  0  0  0  0  0
   -0.0501    2.1181   -1.8659 H   0  0  0  0  0  0  0  0  0  0  0  0
    1.0245   -1.4900   -0.9172 H   0  0  0  0  0  0  0  0  0  0  0  0
   -2.6801   -1.8319    2.2720 H   0  0  0  0  0  0  0  0  0  0  0  0
   -1.1026   -1.2023    1.8606 H   0  0  0  0  0  0  0  0  0  0  0  0
   -2.7390    0.5212    2.6013 H   0  0  0  0  0  0  0  0  0  0  0  0
   -3.8088    0.1204    1.2571 H   0  0  0  0  0  0  0  0  0  0  0  0
    3.1159   -1.1756    0.4758 H   0  0  0  0  0  0  0  0  0  0  0  0
    2.0743   -0.3946    1.6629 H   0  0  0  0  0  0  0  0  0  0  0  0
  1 21  1  0
  2 21  1  0
  3  5  2  0
  3  8  1  0
  4  6  2  0
  4  9  1  0
  5 10  1  0
  6 11  1  0
  7 12  1  0
  7 15  1  0
  8 16  2  0
  9 17  2  0
 10 18  2  0
 11 19  2  0
 12 20  2  3
 13 14  1  0
 13 16  1  0
 14 17  1  0
 15 21  1  0
 16 18  1  0
 17 19  1  0
 18 20  1  0
 19 20  1  0
  1 22  1  0
  1 23  1  0
  1 24  1  0
  2 25  1  0
  2 26  1  0
  2 27  1  0
  3 28  1  0
  4 29  1  0
  5 30  1  0
  6 31  1  0
  7 32  1  0
  7 33  1  0
  8 34  1  0
  9 35  1  0
 10 36  1  0
 11 37  1  0
 12 38  1  0
 13 39  1  0
 13 40  1  0
 14 41  1  0
 14 42  1  0
 15 43  1  0
 15 44  1  0
M  END
