
     RDKit          3D

 49 52  0  0  0  0  0  0  0  0999 V2000
    5.7581    0.1557   -1.8262 C   0  0  0  0  0  0  0  0  0  0  0  0
   -3.8906    1.0155    3.5161 C   0  0  0  0  0  0  0  0  0  0  0  0
   -1.3683   -1.4388   -3.0478 C   0  0  0  0  0  0  0  0  0  0  0  0
   -5.2189    0.8972    3.1461 C   0  0  0  0  0  0  0  0  0  0  0  0
   -2.6393   -1.6138   -3.5668 C   0  0  0  0  0  0  0  0  0  0  0  0
    0.0844   -0.4037    1.3401 C   0  0  0  0  0  0  0  0  0  0  0  0
   -2.8787    0.7758    2.5781 C   0  0  0  0  0  0  0  0  0  0  0  0
   -1.2025   -0.8554   -1.7855 C   0  0  0  0  0  0  0  0  0  0  0  0
   -5.5264    0.5360    1.8399 C   0  0  0  0  0  0  0  0  0  0  0  0
   -3.7365   -1.2068   -2.8175 C   0  0  0  0  0  0  0  0  0  0  0  0
    1.4156    0.1302    1.8897 C   0  0  0  0  0  0  0  0  0  0  0  0
   -0.7566    0.6642    0.6264 C   0  0  0  0  0  0  0  0  0  0  0  0
    3.8585    1.3005   -0.8391 C   0  0  0  0  0  0  0  0  0  0  0  0
    4.0931   -1.0993   -0.5828 C   0  0  0  0  0  0  0  0  0  0  0  0
    2.4797    1.0776   -0.1557 C   0  0  0  0  0  0  0  0  0  0  0  0
    3.1471   -1.1159    0.6499 C   0  0  0  0  0  0  0  0  0  0  0  0
   -3.1498    0.4142    1.2379 C   0  0  0  0  0  0  0  0  0  0  0  0
   -2.2917   -0.4214   -0.9951 C   0  0  0  0  0  0  0  0  0  0  0  0
   -4.5112    0.2914    0.8930 C   0  0  0  0  0  0  0  0  0  0  0  0
   -3.5740   -0.6214   -1.5455 C   0  0  0  0  0  0  0  0  0  0  0  0
    4.8058    0.1746   -0.7242 N   0  0  0  0  0  0  0  0  0  0  0  0
    2.5670    0.1906    0.9970 N   0  0  0  0  0  0  0  0  0  0  0  0
   -2.1112    0.1599    0.2942 N   0  0  0  0  0  0  0  0  0  0  0  0
   -5.0783   -0.1336   -0.7361 S   0  0  0  0  0  0  0  0  0  0  0  0
    6.3041    1.1041   -1.8791 H   0  0  0  0  0  0  0  0  0  0  0  0
    6.5057   -0.6307   -1.6754 H   0  0  0  0  0  0  0  0  0  0  0  0
    5.2695   -0.0162   -2.7920 H   0  0  0  0  0  0  0  0  0  0  0  0
   -3.6310    1.2893    4.5357 H   0  0  0  0  0  0  0  0  0  0  0  0
   -0.4987   -1.7586   -3.6162 H   0  0  0  0  0  0  0  0  0  0  0  0
   -6.0117    1.0807    3.8656 H   0  0  0  0  0  0  0  0  0  0  0  0
   -2.7800   -2.0654   -4.5446 H   0  0  0  0  0  0  0  0  0  0  0  0
   -0.4850   -0.7980    2.1909 H   0  0  0  0  0  0  0  0  0  0  0  0
    0.2491   -1.2713    0.6945 H   0  0  0  0  0  0  0  0  0  0  0  0
   -1.8630    0.8671    2.9481 H   0  0  0  0  0  0  0  0  0  0  0  0
   -0.1793   -0.7709   -1.4369 H   0  0  0  0  0  0  0  0  0  0  0  0
   -6.5732    0.4449    1.5562 H   0  0  0  0  0  0  0  0  0  0  0  0
   -4.7330   -1.3474   -3.2321 H   0  0  0  0  0  0  0  0  0  0  0  0
    1.6970   -0.4995    2.7447 H   0  0  0  0  0  0  0  0  0  0  0  0
    1.2548    1.1246    2.3253 H   0  0  0  0  0  0  0  0  0  0  0  0
   -0.2573    1.0313   -0.2752 H   0  0  0  0  0  0  0  0  0  0  0  0
   -0.8189    1.5724    1.2397 H   0  0  0  0  0  0  0  0  0  0  0  0
    4.3370    2.1779   -0.3872 H   0  0  0  0  0  0  0  0  0  0  0  0
    3.6637    1.5469   -1.8912 H   0  0  0  0  0  0  0  0  0  0  0  0
    4.8068   -1.9253   -0.4763 H   0  0  0  0  0  0  0  0  0  0  0  0
    3.5021   -1.2969   -1.4876 H   0  0  0  0  0  0  0  0  0  0  0  0
    2.0791    2.0555    0.1359 H   0  0  0  0  0  0  0  0  0  0  0  0
    1.8006    0.6491   -0.9018 H   0  0  0  0  0  0  0  0  0  0  0  0
    2.3696   -1.8626    0.4535 H   0  0  0  0  0  0  0  0  0  0  0  0
    3.7169   -1.4663    1.5193 H   0  0  0  0  0  0  0  0  0  0  0  0
  1 21  1  0
  2  4  2  0
  2  7  1  0
  3  5  2  0
  3  8  1  0
  4  9  1  0
  5 10  1  0
  6 11  1  0
  6 12  1  0
  7 17  2  0
  8 18  2  0
  9 19  2  0
 10 20  2  0
 11 22  1  0
 12 23  1  0
 13 15  1  0
 13 21  1  0
 14 16  1  0
 14 21  1  0
 15 22  1  0
 16 22  1  0
 17 19  1  0
 17 23  1  0
 18 20  1  0
 18 23  1  0
 19 24  1  0
 20 24  1  0
  1 25  1  0
  1 26  1  0
  1 27  1  0
  2 28  1  0
  3 29  1  0
  4 30  1  0
  5 31  1  0
  6 32  1  0
  6 33  1  0
  7 34  1  0
  8 35  1  0
  9 36  1  0
 10 37  1  0
 11 38  1  0
 11 39  1  0
 12 40  1  0
 12 41  1  0
 13 42  1  0
 13 43  1  0
 14 44  1  0
 14 45  1  0
 15 46  1  0
 15 47  1  0
 16 48  1  0
 16 49  1  0
M  END
