
     RDKit          3D

 51 54  0  0  0  0  0  0  0  0999 V2000
   -1.6118    2.9954   -2.5059 C   0  0  0  0  0  0  0  0  0  0  0  0
   -1.9396    3.3467   -1.2005 C   0  0  0  0  0  0  0  0  0  0  0  0
   -1.2850    1.6765   -2.8044 C   0  0  0  0  0  0  0  0  0  0  0  0
   -3.5661   -2.3308    1.9861 C   0  0  0  0  0  0  0  0  0  0  0  0
   -4.4312   -1.6644    0.9229 C   0  0  0  0  0  0  0  0  0  0  0  0
   -1.9435    2.3777   -0.1939 C   0  0  0  0  0  0  0  0  0  0  0  0
   -1.2896    0.7065   -1.7979 C   0  0  0  0  0  0  0  0  0  0  0  0
   -2.1670   -2.4471    1.3905 C   0  0  0  0  0  0  0  0  0  0  0  0
   -3.5355   -1.4782   -0.2948 C   0  0  0  0  0  0  0  0  0  0  0  0
    4.2445    0.6626    1.0633 C   0  0  0  0  0  0  0  0  0  0  0  0
    2.6823    1.4781   -0.6792 C   0  0  0  0  0  0  0  0  0  0  0  0
    4.9300   -0.1631   -0.0383 C   0  0  0  0  0  0  0  0  0  0  0  0
    3.3432    0.5442   -1.7050 C   0  0  0  0  0  0  0  0  0  0  0  0
    2.8972   -1.4121   -0.3806 C   0  0  0  0  0  0  0  0  0  0  0  0
    2.7579    0.8383    0.7182 C   0  0  0  0  0  0  0  0  0  0  0  0
   -1.6290    1.0341   -0.4715 C   0  0  0  0  0  0  0  0  0  0  0  0
   -2.0943   -1.4315    0.2369 C   0  0  0  0  0  0  0  0  0  0  0  0
    2.1216   -0.5687    0.6621 C   0  0  0  0  0  0  0  0  0  0  0  0
   -0.1485   -0.1222    1.2094 C   0  0  0  0  0  0  0  0  0  0  0  0
   -1.5979   -0.0103    0.6568 C   0  0  0  0  0  0  0  0  0  0  0  0
    3.9652   -0.6331   -1.0574 N   0  0  0  0  0  0  0  0  0  0  0  0
    0.1281    0.0707    2.3911 O   0  0  0  0  0  0  0  0  0  0  0  0
   -2.4405    0.4656    1.7249 O   0  0  0  0  0  0  0  0  0  0  0  0
    0.7447   -0.4883    0.2506 O   0  0  0  0  0  0  0  0  0  0  0  0
   -1.6100    3.7490   -3.2887 H   0  0  0  0  0  0  0  0  0  0  0  0
   -2.1949    4.3757   -0.9610 H   0  0  0  0  0  0  0  0  0  0  0  0
   -1.0227    1.4000   -3.8226 H   0  0  0  0  0  0  0  0  0  0  0  0
   -3.5526   -1.7239    2.8981 H   0  0  0  0  0  0  0  0  0  0  0  0
   -3.9564   -3.3161    2.2622 H   0  0  0  0  0  0  0  0  0  0  0  0
   -5.3120   -2.2677    0.6802 H   0  0  0  0  0  0  0  0  0  0  0  0
   -4.7950   -0.6964    1.2853 H   0  0  0  0  0  0  0  0  0  0  0  0
   -2.2031    2.6846    0.8181 H   0  0  0  0  0  0  0  0  0  0  0  0
   -1.0101   -0.3079   -2.0714 H   0  0  0  0  0  0  0  0  0  0  0  0
   -2.0432   -3.4582    0.9808 H   0  0  0  0  0  0  0  0  0  0  0  0
   -1.3891   -2.3167    2.1479 H   0  0  0  0  0  0  0  0  0  0  0  0
   -3.6443   -2.3514   -0.9511 H   0  0  0  0  0  0  0  0  0  0  0  0
   -3.8257   -0.6019   -0.8805 H   0  0  0  0  0  0  0  0  0  0  0  0
    4.7305    1.6415    1.1511 H   0  0  0  0  0  0  0  0  0  0  0  0
    4.3489    0.1592    2.0319 H   0  0  0  0  0  0  0  0  0  0  0  0
    3.1966    2.4469   -0.6721 H   0  0  0  0  0  0  0  0  0  0  0  0
    1.6421    1.6716   -0.9619 H   0  0  0  0  0  0  0  0  0  0  0  0
    5.4456   -1.0229    0.4073 H   0  0  0  0  0  0  0  0  0  0  0  0
    5.7154    0.4326   -0.5203 H   0  0  0  0  0  0  0  0  0  0  0  0
    2.6017    0.2117   -2.4425 H   0  0  0  0  0  0  0  0  0  0  0  0
    4.1003    1.0947   -2.2771 H   0  0  0  0  0  0  0  0  0  0  0  0
    3.3567   -2.2753    0.1178 H   0  0  0  0  0  0  0  0  0  0  0  0
    2.2179   -1.8314   -1.1336 H   0  0  0  0  0  0  0  0  0  0  0  0
    2.2559    1.4792    1.4498 H   0  0  0  0  0  0  0  0  0  0  0  0
   -1.4155   -1.8338   -0.5252 H   0  0  0  0  0  0  0  0  0  0  0  0
    2.1899   -1.0684    1.6372 H   0  0  0  0  0  0  0  0  0  0  0  0
   -1.9623    0.2789    2.5569 H   0  0  0  0  0  0  0  0  0  0  0  0
  1  2  2  0
  1  3  1  0
  2  6  1  0
  3  7  2  0
  4  5  1  0
  4  8  1  0
  5  9  1  0
  6 16  2  0
  7 16  1  0
  8 17  1  0
  9 17  1  0
 10 12  1  0
 10 15  1  0
 11 13  1  0
 11 15  1  0
 12 21  1  0
 13 21  1  0
 14 18  1  0
 14 21  1  0
 15 18  1  0
 16 20  1  0
 17 20  1  0
 18 24  1  0
 19 20  1  0
 19 22  2  0
 19 24  1  0
 20 23  1  0
  1 25  1  0
  2 26  1  0
  3 27  1  0
  4 28  1  0
  4 29  1  0
  5 30  1  0
  5 31  1  0
  6 32  1  0
  7 33  1  0
  8 34  1  0
  8 35  1  0
  9 36  1  0
  9 37  1  0
 10 38  1  0
 10 39  1  0
 11 40  1  0
 11 41  1  0
 12 42  1  0
 12 43  1  0
 13 44  1  0
 13 45  1  0
 14 46  1  0
 14 47  1  0
 15 48  1  0
 17 49  1  0
 18 50  1  0
 23 51  1  0
M  END
