
     RDKit          3D

 48 49  0  0  0  0  0  0  0  0999 V2000
   -6.2622   -0.3617   -1.0376 C   0  0  0  0  0  0  0  0  0  0  0  0
    5.5971   -0.6862   -2.3530 C   0  0  0  0  0  0  0  0  0  0  0  0
   -5.1209   -1.2839    2.8829 C   0  0  0  0  0  0  0  0  0  0  0  0
   -1.8883    1.2731   -3.2533 C   0  0  0  0  0  0  0  0  0  0  0  0
    5.2853    0.3018    2.5862 C   0  0  0  0  0  0  0  0  0  0  0  0
    6.3518    0.0136    1.7402 C   0  0  0  0  0  0  0  0  0  0  0  0
    3.9917    0.3528    2.0723 C   0  0  0  0  0  0  0  0  0  0  0  0
    6.1265   -0.2262    0.3812 C   0  0  0  0  0  0  0  0  0  0  0  0
   -0.7289    0.2973    0.6762 C   0  0  0  0  0  0  0  0  0  0  0  0
    0.1378   -0.8948    0.2438 C   0  0  0  0  0  0  0  0  0  0  0  0
   -3.8714    0.2804   -1.4965 C   0  0  0  0  0  0  0  0  0  0  0  0
   -3.1290   -0.3314    1.1171 C   0  0  0  0  0  0  0  0  0  0  0  0
    2.3182    0.1934    0.2032 C   0  0  0  0  0  0  0  0  0  0  0  0
   -4.8364   -0.1903   -0.5883 C   0  0  0  0  0  0  0  0  0  0  0  0
   -2.1634    0.1457    0.2107 C   0  0  0  0  0  0  0  0  0  0  0  0
    3.7464    0.1150    0.7058 C   0  0  0  0  0  0  0  0  0  0  0  0
    4.8299   -0.1780   -0.1467 C   0  0  0  0  0  0  0  0  0  0  0  0
   -4.4604   -0.4987    0.7290 C   0  0  0  0  0  0  0  0  0  0  0  0
   -2.5397    0.4501   -1.1082 C   0  0  0  0  0  0  0  0  0  0  0  0
    1.4948   -0.8658    0.8056 N   0  0  0  0  0  0  0  0  0  0  0  0
    4.5237   -0.4011   -1.4653 O   0  0  0  0  0  0  0  0  0  0  0  0
   -5.4643   -0.9536    1.5437 O   0  0  0  0  0  0  0  0  0  0  0  0
   -1.5356    0.8949   -1.9286 O   0  0  0  0  0  0  0  0  0  0  0  0
   -6.5677   -1.4090   -0.9389 H   0  0  0  0  0  0  0  0  0  0  0  0
   -6.3912   -0.0762   -2.0871 H   0  0  0  0  0  0  0  0  0  0  0  0
   -6.9268    0.2703   -0.4387 H   0  0  0  0  0  0  0  0  0  0  0  0
    5.1748   -0.8230   -3.3538 H   0  0  0  0  0  0  0  0  0  0  0  0
    6.3019    0.1506   -2.4031 H   0  0  0  0  0  0  0  0  0  0  0  0
    6.1032   -1.6170   -2.0757 H   0  0  0  0  0  0  0  0  0  0  0  0
   -6.0329   -1.6155    3.3892 H   0  0  0  0  0  0  0  0  0  0  0  0
   -4.7430   -0.4087    3.4220 H   0  0  0  0  0  0  0  0  0  0  0  0
   -4.4035   -2.1104    2.9142 H   0  0  0  0  0  0  0  0  0  0  0  0
   -2.6167    2.0913   -3.2516 H   0  0  0  0  0  0  0  0  0  0  0  0
   -0.9831    1.6373   -3.7490 H   0  0  0  0  0  0  0  0  0  0  0  0
   -2.2561    0.4134   -3.8236 H   0  0  0  0  0  0  0  0  0  0  0  0
    5.4572    0.4861    3.6436 H   0  0  0  0  0  0  0  0  0  0  0  0
    7.3628   -0.0275    2.1371 H   0  0  0  0  0  0  0  0  0  0  0  0
    3.1585    0.5739    2.7384 H   0  0  0  0  0  0  0  0  0  0  0  0
    6.9895   -0.4478   -0.2395 H   0  0  0  0  0  0  0  0  0  0  0  0
   -0.3274    1.2426    0.2919 H   0  0  0  0  0  0  0  0  0  0  0  0
   -0.7085    0.3923    1.7699 H   0  0  0  0  0  0  0  0  0  0  0  0
    0.1803   -0.9782   -0.8494 H   0  0  0  0  0  0  0  0  0  0  0  0
   -0.3380   -1.8187    0.5979 H   0  0  0  0  0  0  0  0  0  0  0  0
   -4.1899    0.5056   -2.5094 H   0  0  0  0  0  0  0  0  0  0  0  0
   -2.8077   -0.5678    2.1270 H   0  0  0  0  0  0  0  0  0  0  0  0
    2.2801    0.1236   -0.8914 H   0  0  0  0  0  0  0  0  0  0  0  0
    1.9317    1.1864    0.4695 H   0  0  0  0  0  0  0  0  0  0  0  0
    1.9495   -1.7550    0.5900 H   0  0  0  0  0  0  0  0  0  0  0  0
  1 14  1  0
  2 21  1  0
  3 22  1  0
  4 23  1  0
  5  6  2  0
  5  7  1  0
  6  8  1  0
  7 16  2  0
  8 17  2  0
  9 10  1  0
  9 15  1  0
 10 20  1  0
 11 14  2  0
 11 19  1  0
 12 15  1  0
 12 18  2  0
 13 16  1  0
 13 20  1  0
 14 18  1  0
 15 19  2  0
 16 17  1  0
 17 21  1  0
 18 22  1  0
 19 23  1  0
  1 24  1  0
  1 25  1  0
  1 26  1  0
  2 27  1  0
  2 28  1  0
  2 29  1  0
  3 30  1  0
  3 31  1  0
  3 32  1  0
  4 33  1  0
  4 34  1  0
  4 35  1  0
  5 36  1  0
  6 37  1  0
  7 38  1  0
  8 39  1  0
  9 40  1  0
  9 41  1  0
 10 42  1  0
 10 43  1  0
 11 44  1  0
 12 45  1  0
 13 46  1  0
 13 47  1  0
 20 48  1  0
M  END
