
     RDKit          3D

 53 55  0  0  0  0  0  0  0  0999 V2000
    4.7965   -0.6054   -2.1954 C   0  0  0  0  0  0  0  0  0  0  0  0
    5.0393    0.1150   -0.8732 C   0  0  0  0  0  0  0  0  0  0  0  0
   -2.7023   -0.0112   -4.3726 C   0  0  0  0  0  0  0  0  0  0  0  0
   -2.5421    1.1555   -3.6320 C   0  0  0  0  0  0  0  0  0  0  0  0
   -2.5408   -1.2479   -3.7558 C   0  0  0  0  0  0  0  0  0  0  0  0
   -3.7893    0.9138    2.8783 C   0  0  0  0  0  0  0  0  0  0  0  0
   -4.8826    0.5927    1.8616 C   0  0  0  0  0  0  0  0  0  0  0  0
    3.7893   -0.4851    2.6308 C   0  0  0  0  0  0  0  0  0  0  0  0
   -2.2226    1.0855   -2.2734 C   0  0  0  0  0  0  0  0  0  0  0  0
   -2.2200   -1.3182   -2.3974 C   0  0  0  0  0  0  0  0  0  0  0  0
   -2.4867    0.4231    2.2576 C   0  0  0  0  0  0  0  0  0  0  0  0
   -4.1720    0.0168    0.6394 C   0  0  0  0  0  0  0  0  0  0  0  0
    2.3547   -0.8693    2.2686 C   0  0  0  0  0  0  0  0  0  0  0  0
    4.5355    0.2229    1.4934 C   0  0  0  0  0  0  0  0  0  0  0  0
    2.7254   -0.0676   -0.0965 C   0  0  0  0  0  0  0  0  0  0  0  0
   -2.0568   -0.1536   -1.6254 C   0  0  0  0  0  0  0  0  0  0  0  0
   -2.7317    0.5359    0.7463 C   0  0  0  0  0  0  0  0  0  0  0  0
    1.8082    0.0131    1.1498 C   0  0  0  0  0  0  0  0  0  0  0  0
   -0.2960    0.4104    0.1131 C   0  0  0  0  0  0  0  0  0  0  0  0
   -1.7028   -0.2258   -0.1315 C   0  0  0  0  0  0  0  0  0  0  0  0
    4.1469   -0.3443    0.2006 N   0  0  0  0  0  0  0  0  0  0  0  0
    0.0621    1.5286   -0.2345 O   0  0  0  0  0  0  0  0  0  0  0  0
   -1.7133   -1.6073    0.2742 O   0  0  0  0  0  0  0  0  0  0  0  0
    0.4789   -0.4522    0.8460 O   0  0  0  0  0  0  0  0  0  0  0  0
    3.8178   -0.3604   -2.6194 H   0  0  0  0  0  0  0  0  0  0  0  0
    5.5558   -0.3086   -2.9265 H   0  0  0  0  0  0  0  0  0  0  0  0
    4.8585   -1.6915   -2.0700 H   0  0  0  0  0  0  0  0  0  0  0  0
    4.9518    1.1986   -1.0215 H   0  0  0  0  0  0  0  0  0  0  0  0
    6.0790   -0.0850   -0.5852 H   0  0  0  0  0  0  0  0  0  0  0  0
   -2.9507    0.0428   -5.4289 H   0  0  0  0  0  0  0  0  0  0  0  0
   -2.6618    2.1239   -4.1108 H   0  0  0  0  0  0  0  0  0  0  0  0
   -2.6651   -2.1626   -4.3295 H   0  0  0  0  0  0  0  0  0  0  0  0
   -3.7451    1.9966    3.0438 H   0  0  0  0  0  0  0  0  0  0  0  0
   -3.9777    0.4408    3.8471 H   0  0  0  0  0  0  0  0  0  0  0  0
   -5.6128   -0.1178    2.2626 H   0  0  0  0  0  0  0  0  0  0  0  0
   -5.4263    1.5066    1.5966 H   0  0  0  0  0  0  0  0  0  0  0  0
    3.7830    0.1740    3.5073 H   0  0  0  0  0  0  0  0  0  0  0  0
    4.3304   -1.3921    2.9277 H   0  0  0  0  0  0  0  0  0  0  0  0
   -2.0929    2.0192   -1.7288 H   0  0  0  0  0  0  0  0  0  0  0  0
   -2.1053   -2.3020   -1.9458 H   0  0  0  0  0  0  0  0  0  0  0  0
   -2.3081   -0.6152    2.5601 H   0  0  0  0  0  0  0  0  0  0  0  0
   -1.6332    1.0223    2.5896 H   0  0  0  0  0  0  0  0  0  0  0  0
   -4.2042   -1.0783    0.6834 H   0  0  0  0  0  0  0  0  0  0  0  0
   -4.6613    0.3271   -0.2891 H   0  0  0  0  0  0  0  0  0  0  0  0
    2.3232   -1.9200    1.9496 H   0  0  0  0  0  0  0  0  0  0  0  0
    1.7092   -0.8176    3.1537 H   0  0  0  0  0  0  0  0  0  0  0  0
    4.3337    1.3020    1.5201 H   0  0  0  0  0  0  0  0  0  0  0  0
    5.6109    0.0982    1.6705 H   0  0  0  0  0  0  0  0  0  0  0  0
    2.6224    0.8806   -0.6406 H   0  0  0  0  0  0  0  0  0  0  0  0
    2.3511   -0.8502   -0.7681 H   0  0  0  0  0  0  0  0  0  0  0  0
   -2.7266    1.6042    0.4871 H   0  0  0  0  0  0  0  0  0  0  0  0
    1.7611    1.0452    1.5237 H   0  0  0  0  0  0  0  0  0  0  0  0
   -0.9945   -1.7064    0.9267 H   0  0  0  0  0  0  0  0  0  0  0  0
  1  2  1  0
  2 21  1  0
  3  4  2  0
  3  5  1  0
  4  9  1  0
  5 10  2  0
  6  7  1  0
  6 11  1  0
  7 12  1  0
  8 13  1  0
  8 14  1  0
  9 16  2  0
 10 16  1  0
 11 17  1  0
 12 17  1  0
 13 18  1  0
 14 21  1  0
 15 18  1  0
 15 21  1  0
 16 20  1  0
 17 20  1  0
 18 24  1  0
 19 20  1  0
 19 22  2  0
 19 24  1  0
 20 23  1  0
  1 25  1  0
  1 26  1  0
  1 27  1  0
  2 28  1  0
  2 29  1  0
  3 30  1  0
  4 31  1  0
  5 32  1  0
  6 33  1  0
  6 34  1  0
  7 35  1  0
  7 36  1  0
  8 37  1  0
  8 38  1  0
  9 39  1  0
 10 40  1  0
 11 41  1  0
 11 42  1  0
 12 43  1  0
 12 44  1  0
 13 45  1  0
 13 46  1  0
 14 47  1  0
 14 48  1  0
 15 49  1  0
 15 50  1  0
 17 51  1  0
 18 52  1  0
 23 53  1  0
M  END
