
     RDKit          3D

 52 55  0  0  0  0  0  0  0  0999 V2000
   -2.7222   -2.3320   -0.5674 C   0  0  0  0  0  0  0  0  0  0  0  0
    2.4302   -1.0261    1.6233 C   0  0  0  0  0  0  0  0  0  0  0  0
    4.3403    1.1136    1.0317 C   0  0  0  0  0  0  0  0  0  0  0  0
   -2.0399    0.3421   -2.1305 C   0  0  0  0  0  0  0  0  0  0  0  0
   -0.5504    0.4760   -1.8186 C   0  0  0  0  0  0  0  0  0  0  0  0
   -3.9416    0.0857    1.8068 C   0  0  0  0  0  0  0  0  0  0  0  0
   -0.4280    0.1582    1.4181 C   0  0  0  0  0  0  0  0  0  0  0  0
    2.4091   -0.3673   -1.8576 C   0  0  0  0  0  0  0  0  0  0  0  0
   -3.1724   -0.9275    1.3868 C   0  0  0  0  0  0  0  0  0  0  0  0
    0.8867    0.8944    1.1640 C   0  0  0  0  0  0  0  0  0  0  0  0
    3.7109    0.0220   -1.1666 C   0  0  0  0  0  0  0  0  0  0  0  0
   -3.1827    1.5020   -0.2022 C   0  0  0  0  0  0  0  0  0  0  0  0
   -2.9251    0.1556   -0.8898 C   0  0  0  0  0  0  0  0  0  0  0  0
   -4.0393    1.3442    1.0327 C   0  0  0  0  0  0  0  0  0  0  0  0
   -0.0417   -0.7096   -0.9866 C   0  0  0  0  0  0  0  0  0  0  0  0
   -0.8473   -0.8657    0.3297 C   0  0  0  0  0  0  0  0  0  0  0  0
    1.4800   -0.7613   -0.7011 C   0  0  0  0  0  0  0  0  0  0  0  0
   -2.3991   -0.9534    0.0759 C   0  0  0  0  0  0  0  0  0  0  0  0
    1.9903    0.0136    0.5594 C   0  0  0  0  0  0  0  0  0  0  0  0
    3.2193    0.8393    0.0323 C   0  0  0  0  0  0  0  0  0  0  0  0
   -4.7607    2.2485    1.4479 O   0  0  0  0  0  0  0  0  0  0  0  0
    2.7969    2.1065   -0.4911 O   0  0  0  0  0  0  0  0  0  0  0  0
   -3.8037   -2.4686   -0.6927 H   0  0  0  0  0  0  0  0  0  0  0  0
   -2.2684   -2.4522   -1.5551 H   0  0  0  0  0  0  0  0  0  0  0  0
   -2.3630   -3.1585    0.0579 H   0  0  0  0  0  0  0  0  0  0  0  0
    2.7504   -0.5374    2.5499 H   0  0  0  0  0  0  0  0  0  0  0  0
    3.2610   -1.6437    1.2644 H   0  0  0  0  0  0  0  0  0  0  0  0
    1.6154   -1.7096    1.8844 H   0  0  0  0  0  0  0  0  0  0  0  0
    5.1053    1.7586    0.5838 H   0  0  0  0  0  0  0  0  0  0  0  0
    4.8335    0.1981    1.3713 H   0  0  0  0  0  0  0  0  0  0  0  0
    3.9570    1.6494    1.9072 H   0  0  0  0  0  0  0  0  0  0  0  0
   -2.1795   -0.5147   -2.8018 H   0  0  0  0  0  0  0  0  0  0  0  0
   -2.3696    1.2193   -2.7011 H   0  0  0  0  0  0  0  0  0  0  0  0
   -0.0286    0.5157   -2.7805 H   0  0  0  0  0  0  0  0  0  0  0  0
   -0.3620    1.4309   -1.3228 H   0  0  0  0  0  0  0  0  0  0  0  0
   -4.4877    0.0525    2.7422 H   0  0  0  0  0  0  0  0  0  0  0  0
   -0.3537   -0.3759    2.3751 H   0  0  0  0  0  0  0  0  0  0  0  0
   -1.1909    0.9201    1.5860 H   0  0  0  0  0  0  0  0  0  0  0  0
    2.5539   -1.1905   -2.5644 H   0  0  0  0  0  0  0  0  0  0  0  0
    2.0380    0.4935   -2.4202 H   0  0  0  0  0  0  0  0  0  0  0  0
   -3.0934   -1.8063    2.0258 H   0  0  0  0  0  0  0  0  0  0  0  0
    1.2338    1.3442    2.1032 H   0  0  0  0  0  0  0  0  0  0  0  0
    0.6630    1.7420    0.5094 H   0  0  0  0  0  0  0  0  0  0  0  0
    4.2574   -0.8738   -0.8503 H   0  0  0  0  0  0  0  0  0  0  0  0
    4.3477    0.6024   -1.8425 H   0  0  0  0  0  0  0  0  0  0  0  0
   -2.2582    2.0160    0.0733 H   0  0  0  0  0  0  0  0  0  0  0  0
   -3.7251    2.1568   -0.8956 H   0  0  0  0  0  0  0  0  0  0  0  0
   -3.9100   -0.1691   -1.2617 H   0  0  0  0  0  0  0  0  0  0  0  0
   -0.2355   -1.5992   -1.6026 H   0  0  0  0  0  0  0  0  0  0  0  0
   -0.5491   -1.8425    0.7429 H   0  0  0  0  0  0  0  0  0  0  0  0
    1.6903   -1.8284   -0.5241 H   0  0  0  0  0  0  0  0  0  0  0  0
    2.6582    2.7123    0.2569 H   0  0  0  0  0  0  0  0  0  0  0  0
  1 18  1  0
  2 19  1  0
  3 20  1  0
  4  5  1  0
  4 13  1  0
  5 15  1  0
  6  9  2  0
  6 14  1  0
  7 10  1  0
  7 16  1  0
  8 11  1  0
  8 17  1  0
  9 18  1  0
 10 19  1  0
 11 20  1  0
 12 13  1  0
 12 14  1  0
 13 18  1  0
 14 21  2  0
 15 16  1  0
 15 17  1  0
 16 18  1  0
 17 19  1  0
 19 20  1  0
 20 22  1  0
  1 23  1  0
  1 24  1  0
  1 25  1  0
  2 26  1  0
  2 27  1  0
  2 28  1  0
  3 29  1  0
  3 30  1  0
  3 31  1  0
  4 32  1  0
  4 33  1  0
  5 34  1  0
  5 35  1  0
  6 36  1  0
  7 37  1  0
  7 38  1  0
  8 39  1  0
  8 40  1  0
  9 41  1  0
 10 42  1  0
 10 43  1  0
 11 44  1  0
 11 45  1  0
 12 46  1  0
 12 47  1  0
 13 48  1  0
 15 49  1  0
 16 50  1  0
 17 51  1  0
 22 52  1  0
M  END
