
     RDKit          3D

 53 55  0  0  0  0  0  0  0  0999 V2000
    6.6160    0.0147    1.7455 C   0  0  0  0  0  0  0  0  0  0  0  0
   -2.6066    2.9902   -1.4610 C   0  0  0  0  0  0  0  0  0  0  0  0
   -1.9014    2.2163    0.7818 C   0  0  0  0  0  0  0  0  0  0  0  0
    5.1174    0.0422    2.0026 C   0  0  0  0  0  0  0  0  0  0  0  0
    4.2814    0.2472    0.7366 C   0  0  0  0  0  0  0  0  0  0  0  0
    4.3721   -0.9263   -0.2453 C   0  0  0  0  0  0  0  0  0  0  0  0
    3.5150   -0.7224   -1.5009 C   0  0  0  0  0  0  0  0  0  0  0  0
   -4.6999    0.2235    0.8906 C   0  0  0  0  0  0  0  0  0  0  0  0
   -4.3975    0.6007   -0.5575 C   0  0  0  0  0  0  0  0  0  0  0  0
    1.3807   -1.9434   -0.9176 C   0  0  0  0  0  0  0  0  0  0  0  0
    1.2720    0.4231   -1.3154 C   0  0  0  0  0  0  0  0  0  0  0  0
   -2.5970   -1.1574    0.9873 C   0  0  0  0  0  0  0  0  0  0  0  0
    2.0306   -0.7489   -1.2375 C   0  0  0  0  0  0  0  0  0  0  0  0
   -4.0949   -1.1204    1.2693 C   0  0  0  0  0  0  0  0  0  0  0  0
   -2.2536   -0.7934   -0.4725 C   0  0  0  0  0  0  0  0  0  0  0  0
   -2.9123    0.5177   -0.9625 C   0  0  0  0  0  0  0  0  0  0  0  0
    0.0045   -1.9491   -0.6753 C   0  0  0  0  0  0  0  0  0  0  0  0
   -0.1045    0.4124   -1.0579 C   0  0  0  0  0  0  0  0  0  0  0  0
   -0.7613   -0.7729   -0.7234 C   0  0  0  0  0  0  0  0  0  0  0  0
   -2.0458    1.7809   -0.6813 C   0  0  0  0  0  0  0  0  0  0  0  0
   -4.7365   -2.1576    0.5313 O   0  0  0  0  0  0  0  0  0  0  0  0
   -0.6191   -3.1369   -0.4065 O   0  0  0  0  0  0  0  0  0  0  0  0
   -0.7145    1.6233   -1.2102 O   0  0  0  0  0  0  0  0  0  0  0  0
    7.1587   -0.0305    2.6953 H   0  0  0  0  0  0  0  0  0  0  0  0
    6.9403    0.9144    1.2130 H   0  0  0  0  0  0  0  0  0  0  0  0
    6.9071   -0.8604    1.1574 H   0  0  0  0  0  0  0  0  0  0  0  0
   -3.5669    3.3349   -1.0672 H   0  0  0  0  0  0  0  0  0  0  0  0
   -1.9081    3.8354   -1.4234 H   0  0  0  0  0  0  0  0  0  0  0  0
   -2.7301    2.7480   -2.5229 H   0  0  0  0  0  0  0  0  0  0  0  0
   -1.2512    3.0979    0.8520 H   0  0  0  0  0  0  0  0  0  0  0  0
   -1.4122    1.4576    1.3951 H   0  0  0  0  0  0  0  0  0  0  0  0
   -2.8588    2.4857    1.2320 H   0  0  0  0  0  0  0  0  0  0  0  0
    4.8999    0.8624    2.6973 H   0  0  0  0  0  0  0  0  0  0  0  0
    4.8155   -0.8851    2.5034 H   0  0  0  0  0  0  0  0  0  0  0  0
    4.5920    1.1729    0.2371 H   0  0  0  0  0  0  0  0  0  0  0  0
    3.2390    0.3879    1.0452 H   0  0  0  0  0  0  0  0  0  0  0  0
    5.4116   -1.0475   -0.5708 H   0  0  0  0  0  0  0  0  0  0  0  0
    4.0884   -1.8555    0.2634 H   0  0  0  0  0  0  0  0  0  0  0  0
    3.7463   -1.5147   -2.2247 H   0  0  0  0  0  0  0  0  0  0  0  0
    3.7967    0.2182   -1.9908 H   0  0  0  0  0  0  0  0  0  0  0  0
   -4.3359    0.9950    1.5735 H   0  0  0  0  0  0  0  0  0  0  0  0
   -5.7893    0.1850    1.0133 H   0  0  0  0  0  0  0  0  0  0  0  0
   -4.9548   -0.0909   -1.2048 H   0  0  0  0  0  0  0  0  0  0  0  0
   -4.8172    1.5884   -0.7685 H   0  0  0  0  0  0  0  0  0  0  0  0
    1.9529   -2.8654   -0.8688 H   0  0  0  0  0  0  0  0  0  0  0  0
    1.7476    1.3661   -1.5771 H   0  0  0  0  0  0  0  0  0  0  0  0
   -2.2360   -2.1685    1.2090 H   0  0  0  0  0  0  0  0  0  0  0  0
   -2.0788   -0.4969    1.6882 H   0  0  0  0  0  0  0  0  0  0  0  0
   -4.2690   -1.3219    2.3322 H   0  0  0  0  0  0  0  0  0  0  0  0
   -2.6685   -1.5901   -1.1087 H   0  0  0  0  0  0  0  0  0  0  0  0
   -2.9172    0.4328   -2.0626 H   0  0  0  0  0  0  0  0  0  0  0  0
   -5.6755   -2.1617    0.7835 H   0  0  0  0  0  0  0  0  0  0  0  0
    0.0288   -3.8568   -0.4637 H   0  0  0  0  0  0  0  0  0  0  0  0
  1  4  1  0
  2 20  1  0
  3 20  1  0
  4  5  1  0
  5  6  1  0
  6  7  1  0
  7 13  1  0
  8  9  1  0
  8 14  1  0
  9 16  1  0
 10 13  2  0
 10 17  1  0
 11 13  1  0
 11 18  2  0
 12 14  1  0
 12 15  1  0
 14 21  1  0
 15 16  1  0
 15 19  1  0
 16 20  1  0
 17 19  2  0
 17 22  1  0
 18 19  1  0
 18 23  1  0
 20 23  1  0
  1 24  1  0
  1 25  1  0
  1 26  1  0
  2 27  1  0
  2 28  1  0
  2 29  1  0
  3 30  1  0
  3 31  1  0
  3 32  1  0
  4 33  1  0
  4 34  1  0
  5 35  1  0
  5 36  1  0
  6 37  1  0
  6 38  1  0
  7 39  1  0
  7 40  1  0
  8 41  1  0
  8 42  1  0
  9 43  1  0
  9 44  1  0
 10 45  1  0
 11 46  1  0
 12 47  1  0
 12 48  1  0
 14 49  1  0
 15 50  1  0
 16 51  1  0
 21 52  1  0
 22 53  1  0
M  END
