
     RDKit          3D

 54 58  0  0  0  0  0  0  0  0999 V2000
    2.4354   -1.6752    0.0295 C   0  0  0  0  0  0  0  0  0  0  0  0
   -2.5298   -2.1355    0.1164 C   0  0  0  0  0  0  0  0  0  0  0  0
   -4.6337   -0.1605   -1.4750 C   0  0  0  0  0  0  0  0  0  0  0  0
    1.9636    0.5042    2.2620 C   0  0  0  0  0  0  0  0  0  0  0  0
    0.4659    0.7440    2.1306 C   0  0  0  0  0  0  0  0  0  0  0  0
   -0.1278   -0.7722   -1.4182 C   0  0  0  0  0  0  0  0  0  0  0  0
   -2.1199    1.5898    0.7487 C   0  0  0  0  0  0  0  0  0  0  0  0
   -1.6189   -0.4539   -1.5351 C   0  0  0  0  0  0  0  0  0  0  0  0
   -3.4392    1.5653   -0.0338 C   0  0  0  0  0  0  0  0  0  0  0  0
    4.2043    0.5769    1.1240 C   0  0  0  0  0  0  0  0  0  0  0  0
    2.8015    0.2501   -1.5544 C   0  0  0  0  0  0  0  0  0  0  0  0
    2.6843    0.7264    0.9255 C   0  0  0  0  0  0  0  0  0  0  0  0
   -0.1654   -0.1203    1.0296 C   0  0  0  0  0  0  0  0  0  0  0  0
    0.5624    0.0685   -0.3261 C   0  0  0  0  0  0  0  0  0  0  0  0
   -1.6898    0.1229    0.9423 C   0  0  0  0  0  0  0  0  0  0  0  0
    4.9892    0.5652   -0.1487 C   0  0  0  0  0  0  0  0  0  0  0  0
    4.2987    0.3591   -1.4657 C   0  0  0  0  0  0  0  0  0  0  0  0
    2.1197   -0.1781   -0.2195 C   0  0  0  0  0  0  0  0  0  0  0  0
   -2.3977   -0.6345   -0.2085 C   0  0  0  0  0  0  0  0  0  0  0  0
   -3.7838    0.0817   -0.2308 C   0  0  0  0  0  0  0  0  0  0  0  0
   -4.5552   -0.3360    0.9045 O   0  0  0  0  0  0  0  0  0  0  0  0
    4.9662    1.9392   -1.1812 S   0  0  0  0  0  0  0  0  0  0  0  0
    3.5090   -1.8595    0.1347 H   0  0  0  0  0  0  0  0  0  0  0  0
    2.1045   -2.2990   -0.8071 H   0  0  0  0  0  0  0  0  0  0  0  0
    1.9547   -2.0572    0.9339 H   0  0  0  0  0  0  0  0  0  0  0  0
   -3.0990   -2.6558   -0.6611 H   0  0  0  0  0  0  0  0  0  0  0  0
   -3.0409   -2.3038    1.0704 H   0  0  0  0  0  0  0  0  0  0  0  0
   -1.5554   -2.6268    0.1948 H   0  0  0  0  0  0  0  0  0  0  0  0
   -5.5959    0.3581   -1.3922 H   0  0  0  0  0  0  0  0  0  0  0  0
   -4.1452    0.1883   -2.3895 H   0  0  0  0  0  0  0  0  0  0  0  0
   -4.8658   -1.2248   -1.5882 H   0  0  0  0  0  0  0  0  0  0  0  0
    2.3655    1.1908    3.0175 H   0  0  0  0  0  0  0  0  0  0  0  0
    2.1447   -0.5094    2.6380 H   0  0  0  0  0  0  0  0  0  0  0  0
    0.3022    1.8082    1.9229 H   0  0  0  0  0  0  0  0  0  0  0  0
   -0.0171    0.5328    3.0923 H   0  0  0  0  0  0  0  0  0  0  0  0
   -0.0040   -1.8416   -1.2231 H   0  0  0  0  0  0  0  0  0  0  0  0
    0.3318   -0.5781   -2.3931 H   0  0  0  0  0  0  0  0  0  0  0  0
   -2.2523    2.0831    1.7183 H   0  0  0  0  0  0  0  0  0  0  0  0
   -1.3803    2.1733    0.1910 H   0  0  0  0  0  0  0  0  0  0  0  0
   -2.0532   -1.0942   -2.3132 H   0  0  0  0  0  0  0  0  0  0  0  0
   -1.7123    0.5743   -1.9049 H   0  0  0  0  0  0  0  0  0  0  0  0
   -3.2955    2.0757   -0.9933 H   0  0  0  0  0  0  0  0  0  0  0  0
   -4.2186    2.1054    0.5149 H   0  0  0  0  0  0  0  0  0  0  0  0
    4.4128   -0.3587    1.6585 H   0  0  0  0  0  0  0  0  0  0  0  0
    4.5734    1.3784    1.7771 H   0  0  0  0  0  0  0  0  0  0  0  0
    2.3773    1.2013   -1.9032 H   0  0  0  0  0  0  0  0  0  0  0  0
    2.5684   -0.4797   -2.3399 H   0  0  0  0  0  0  0  0  0  0  0  0
    2.4973    1.7717    0.6360 H   0  0  0  0  0  0  0  0  0  0  0  0
   -0.0401   -1.1679    1.3334 H   0  0  0  0  0  0  0  0  0  0  0  0
    0.4376    1.1217   -0.6169 H   0  0  0  0  0  0  0  0  0  0  0  0
   -2.1210   -0.2084    1.8992 H   0  0  0  0  0  0  0  0  0  0  0  0
    5.9682    0.1224   -0.0076 H   0  0  0  0  0  0  0  0  0  0  0  0
    4.8048   -0.2181   -2.2296 H   0  0  0  0  0  0  0  0  0  0  0  0
   -5.3854    0.1705    0.9083 H   0  0  0  0  0  0  0  0  0  0  0  0
  1 18  1  0
  2 19  1  0
  3 20  1  0
  4  5  1  0
  4 12  1  0
  5 13  1  0
  6  8  1  0
  6 14  1  0
  7  9  1  0
  7 15  1  0
  8 19  1  0
  9 20  1  0
 10 12  1  0
 10 16  1  0
 11 17  1  0
 11 18  1  0
 12 18  1  0
 13 14  1  0
 13 15  1  0
 14 18  1  0
 15 19  1  0
 16 17  1  0
 16 22  1  0
 17 22  1  0
 19 20  1  0
 20 21  1  0
  1 23  1  0
  1 24  1  0
  1 25  1  0
  2 26  1  0
  2 27  1  0
  2 28  1  0
  3 29  1  0
  3 30  1  0
  3 31  1  0
  4 32  1  0
  4 33  1  0
  5 34  1  0
  5 35  1  0
  6 36  1  0
  6 37  1  0
  7 38  1  0
  7 39  1  0
  8 40  1  0
  8 41  1  0
  9 42  1  0
  9 43  1  0
 10 44  1  0
 10 45  1  0
 11 46  1  0
 11 47  1  0
 12 48  1  0
 13 49  1  0
 14 50  1  0
 15 51  1  0
 16 52  1  0
 17 53  1  0
 21 54  1  0
M  END
