
     RDKit          3D

 46 48  0  0  0  0  0  0  0  0999 V2000
   -5.8629    2.1416   -0.5203 C   0  0  0  0  0  0  0  0  0  0  0  0
   -6.0773    0.8380    0.2333 C   0  0  0  0  0  0  0  0  0  0  0  0
   -4.9516    0.5078    1.2157 C   0  0  0  0  0  0  0  0  0  0  0  0
    6.3580    1.9347   -1.4350 C   0  0  0  0  0  0  0  0  0  0  0  0
    0.3720   -3.7769   -0.9174 C   0  0  0  0  0  0  0  0  0  0  0  0
    6.9904    2.0978   -0.2053 C   0  0  0  0  0  0  0  0  0  0  0  0
   -0.9192   -3.9244   -0.4308 C   0  0  0  0  0  0  0  0  0  0  0  0
   -3.6120    0.2308    0.5314 C   0  0  0  0  0  0  0  0  0  0  0  0
    5.1702    1.2058   -1.5206 C   0  0  0  0  0  0  0  0  0  0  0  0
    1.0536   -2.5626   -0.7715 C   0  0  0  0  0  0  0  0  0  0  0  0
    6.4332    1.5340    0.9416 C   0  0  0  0  0  0  0  0  0  0  0  0
   -1.5631   -2.8652    0.2090 C   0  0  0  0  0  0  0  0  0  0  0  0
   -2.5538   -0.1964    1.5479 C   0  0  0  0  0  0  0  0  0  0  0  0
    3.3029   -0.1480   -0.5048 C   0  0  0  0  0  0  0  0  0  0  0  0
   -0.2635    0.4623    0.8246 C   0  0  0  0  0  0  0  0  0  0  0  0
    4.5994    0.6239   -0.3752 C   0  0  0  0  0  0  0  0  0  0  0  0
    0.4370   -1.4682   -0.1196 C   0  0  0  0  0  0  0  0  0  0  0  0
    0.8260   -0.1190    0.1970 C   0  0  0  0  0  0  0  0  0  0  0  0
    5.2439    0.8038    0.8600 C   0  0  0  0  0  0  0  0  0  0  0  0
   -0.8721   -1.6493    0.3526 C   0  0  0  0  0  0  0  0  0  0  0  0
    2.0743    0.6193   -0.0433 C   0  0  0  0  0  0  0  0  0  0  0  0
    4.6124    0.1307    2.3214 Cl  0  0  0  0  0  0  0  0  0  0  0  0
   -1.2666   -0.4584    0.9218 N   0  0  0  0  0  0  0  0  0  0  0  0
    2.1062    1.8426    0.1094 O   0  0  0  0  0  0  0  0  0  0  0  0
   -5.0017    2.0801   -1.1919 H   0  0  0  0  0  0  0  0  0  0  0  0
   -5.7044    2.9745    0.1719 H   0  0  0  0  0  0  0  0  0  0  0  0
   -6.7423    2.3711   -1.1306 H   0  0  0  0  0  0  0  0  0  0  0  0
   -7.0168    0.9110    0.7942 H   0  0  0  0  0  0  0  0  0  0  0  0
   -6.1996    0.0180   -0.4837 H   0  0  0  0  0  0  0  0  0  0  0  0
   -4.8377    1.3289    1.9339 H   0  0  0  0  0  0  0  0  0  0  0  0
   -5.2491   -0.3771    1.7920 H   0  0  0  0  0  0  0  0  0  0  0  0
    6.7853    2.3825   -2.3291 H   0  0  0  0  0  0  0  0  0  0  0  0
    0.8591   -4.6101   -1.4184 H   0  0  0  0  0  0  0  0  0  0  0  0
    7.9123    2.6696   -0.1378 H   0  0  0  0  0  0  0  0  0  0  0  0
   -1.4372   -4.8729   -0.5521 H   0  0  0  0  0  0  0  0  0  0  0  0
   -3.2646    1.1267    0.0037 H   0  0  0  0  0  0  0  0  0  0  0  0
   -3.7400   -0.5520   -0.2262 H   0  0  0  0  0  0  0  0  0  0  0  0
    4.6868    1.1040   -2.4902 H   0  0  0  0  0  0  0  0  0  0  0  0
    2.0574   -2.4900   -1.1757 H   0  0  0  0  0  0  0  0  0  0  0  0
    6.9282    1.6712    1.8996 H   0  0  0  0  0  0  0  0  0  0  0  0
   -2.5762   -2.9882    0.5790 H   0  0  0  0  0  0  0  0  0  0  0  0
   -2.8563   -1.1029    2.0836 H   0  0  0  0  0  0  0  0  0  0  0  0
   -2.4006    0.5874    2.2995 H   0  0  0  0  0  0  0  0  0  0  0  0
    3.3973   -1.0778    0.0660 H   0  0  0  0  0  0  0  0  0  0  0  0
    3.1465   -0.4261   -1.5541 H   0  0  0  0  0  0  0  0  0  0  0  0
   -0.3831    1.4674    1.2119 H   0  0  0  0  0  0  0  0  0  0  0  0
  1  2  1  0
  2  3  1  0
  3  8  1  0
  4  6  2  0
  4  9  1  0
  5  7  2  0
  5 10  1  0
  6 11  1  0
  7 12  1  0
  8 13  1  0
  9 16  2  0
 10 17  2  0
 11 19  2  0
 12 20  2  0
 13 23  1  0
 14 16  1  0
 14 21  1  0
 15 18  2  0
 15 23  1  0
 16 19  1  0
 17 18  1  0
 17 20  1  0
 18 21  1  0
 19 22  1  0
 20 23  1  0
 21 24  2  0
  1 25  1  0
  1 26  1  0
  1 27  1  0
  2 28  1  0
  2 29  1  0
  3 30  1  0
  3 31  1  0
  4 32  1  0
  5 33  1  0
  6 34  1  0
  7 35  1  0
  8 36  1  0
  8 37  1  0
  9 38  1  0
 10 39  1  0
 11 40  1  0
 12 41  1  0
 13 42  1  0
 13 43  1  0
 14 44  1  0
 14 45  1  0
 15 46  1  0
M  END
