
     RDKit          3D

 52 54  0  0  0  0  0  0  0  0999 V2000
    3.6404    2.9262    0.4089 C   0  0  0  0  0  0  0  0  0  0  0  0
   -4.8366   -1.4502    1.4215 C   0  0  0  0  0  0  0  0  0  0  0  0
   -5.6097   -0.4266    0.6031 C   0  0  0  0  0  0  0  0  0  0  0  0
   -3.4744   -1.8717    0.8869 C   0  0  0  0  0  0  0  0  0  0  0  0
   -4.7512    0.6233   -0.0923 C   0  0  0  0  0  0  0  0  0  0  0  0
   -3.4165   -2.1413   -0.6151 C   0  0  0  0  0  0  0  0  0  0  0  0
   -4.2858    0.1762   -1.4761 C   0  0  0  0  0  0  0  0  0  0  0  0
    5.7507   -0.0918   -0.1589 C   0  0  0  0  0  0  0  0  0  0  0  0
    3.7869   -1.3535    0.4683 C   0  0  0  0  0  0  0  0  0  0  0  0
    6.5264   -0.8756    0.6957 C   0  0  0  0  0  0  0  0  0  0  0  0
    4.5637   -2.1338    1.3256 C   0  0  0  0  0  0  0  0  0  0  0  0
    3.5407    0.5398   -1.2175 C   0  0  0  0  0  0  0  0  0  0  0  0
    2.3144    2.2273    0.1919 C   0  0  0  0  0  0  0  0  0  0  0  0
    4.3658   -0.3080   -0.2677 C   0  0  0  0  0  0  0  0  0  0  0  0
   -3.2302   -0.9313   -1.5400 C   0  0  0  0  0  0  0  0  0  0  0  0
    5.9248   -1.8843    1.4362 C   0  0  0  0  0  0  0  0  0  0  0  0
    1.1536    2.6706    0.7296 C   0  0  0  0  0  0  0  0  0  0  0  0
   -0.1556    0.8425   -0.2809 C   0  0  0  0  0  0  0  0  0  0  0  0
   -0.0869    1.9428    0.4951 C   0  0  0  0  0  0  0  0  0  0  0  0
   -1.8306   -0.3333   -1.4667 C   0  0  0  0  0  0  0  0  0  0  0  0
    1.1311    0.3721   -0.9118 C   0  0  0  0  0  0  0  0  0  0  0  0
    1.0251    4.2104    1.8109 Br  0  0  0  0  0  0  0  0  0  0  0  0
    6.6699   -2.6328    2.2583 F   0  0  0  0  0  0  0  0  0  0  0  0
   -1.3430    0.1449   -0.3732 N   0  0  0  0  0  0  0  0  0  0  0  0
    2.3058    1.0749   -0.6192 N   0  0  0  0  0  0  0  0  0  0  0  0
   -1.2357    2.4180    1.1304 O   0  0  0  0  0  0  0  0  0  0  0  0
   -1.2258   -0.3474   -2.6712 O   0  0  0  0  0  0  0  0  0  0  0  0
    1.1061   -0.5921   -1.6848 O   0  0  0  0  0  0  0  0  0  0  0  0
    4.0337    3.3044   -0.5412 H   0  0  0  0  0  0  0  0  0  0  0  0
    3.5919    3.7859    1.0814 H   0  0  0  0  0  0  0  0  0  0  0  0
    4.3695    2.2464    0.8579 H   0  0  0  0  0  0  0  0  0  0  0  0
   -4.6889   -1.0570    2.4340 H   0  0  0  0  0  0  0  0  0  0  0  0
   -5.4696   -2.3393    1.5410 H   0  0  0  0  0  0  0  0  0  0  0  0
   -6.2390   -0.9434   -0.1334 H   0  0  0  0  0  0  0  0  0  0  0  0
   -6.3044    0.0800    1.2809 H   0  0  0  0  0  0  0  0  0  0  0  0
   -2.7232   -1.1392    1.1890 H   0  0  0  0  0  0  0  0  0  0  0  0
   -3.1972   -2.7972    1.4092 H   0  0  0  0  0  0  0  0  0  0  0  0
   -3.9106    0.9378    0.5346 H   0  0  0  0  0  0  0  0  0  0  0  0
   -5.3741    1.5145   -0.2408 H   0  0  0  0  0  0  0  0  0  0  0  0
   -4.3189   -2.6901   -0.9198 H   0  0  0  0  0  0  0  0  0  0  0  0
   -2.5744   -2.8252   -0.7913 H   0  0  0  0  0  0  0  0  0  0  0  0
   -3.9074    1.0629   -2.0039 H   0  0  0  0  0  0  0  0  0  0  0  0
   -5.1637   -0.1518   -2.0479 H   0  0  0  0  0  0  0  0  0  0  0  0
    6.2359    0.6901   -0.7372 H   0  0  0  0  0  0  0  0  0  0  0  0
    2.7237   -1.5754    0.3806 H   0  0  0  0  0  0  0  0  0  0  0  0
    7.5937   -0.7088    0.7877 H   0  0  0  0  0  0  0  0  0  0  0  0
    4.1148   -2.9345    1.9016 H   0  0  0  0  0  0  0  0  0  0  0  0
    4.1290    1.3746   -1.6159 H   0  0  0  0  0  0  0  0  0  0  0  0
    3.3092   -0.0813   -2.0929 H   0  0  0  0  0  0  0  0  0  0  0  0
   -3.3080   -1.3450   -2.5594 H   0  0  0  0  0  0  0  0  0  0  0  0
   -0.9883    3.1767    1.6847 H   0  0  0  0  0  0  0  0  0  0  0  0
   -0.2571   -0.3805   -2.5702 H   0  0  0  0  0  0  0  0  0  0  0  0
  1 13  1  0
  2  3  1  0
  2  4  1  0
  3  5  1  0
  4  6  1  0
  5  7  1  0
  6 15  1  0
  7 15  1  0
  8 10  2  0
  8 14  1  0
  9 11  1  0
  9 14  2  0
 10 16  1  0
 11 16  2  0
 12 14  1  0
 12 25  1  0
 13 17  2  0
 13 25  1  0
 15 20  1  0
 16 23  1  0
 17 19  1  0
 17 22  1  0
 18 19  2  0
 18 21  1  0
 18 24  1  0
 19 26  1  0
 20 24  2  3
 20 27  1  0
 21 25  1  0
 21 28  2  0
  1 29  1  0
  1 30  1  0
  1 31  1  0
  2 32  1  0
  2 33  1  0
  3 34  1  0
  3 35  1  0
  4 36  1  0
  4 37  1  0
  5 38  1  0
  5 39  1  0
  6 40  1  0
  6 41  1  0
  7 42  1  0
  7 43  1  0
  8 44  1  0
  9 45  1  0
 10 46  1  0
 11 47  1  0
 12 48  1  0
 12 49  1  0
 15 50  1  0
 26 51  1  0
 27 52  1  0
M  END
