
     RDKit          3D

 54 56  0  0  0  0  0  0  0  0999 V2000
    4.6251   -1.2924    1.7948 C   0  0  0  0  0  0  0  0  0  0  0  0
    2.3076   -3.0808   -0.3347 C   0  0  0  0  0  0  0  0  0  0  0  0
    3.5095   -0.6085    1.0117 C   0  0  0  0  0  0  0  0  0  0  0  0
    1.9716   -2.5678    1.0606 C   0  0  0  0  0  0  0  0  0  0  0  0
   -1.4977   -2.8146   -1.0044 C   0  0  0  0  0  0  0  0  0  0  0  0
   -2.8192   -1.1916    0.2054 C   0  0  0  0  0  0  0  0  0  0  0  0
   -1.7847   -3.7726   -0.0290 C   0  0  0  0  0  0  0  0  0  0  0  0
   -3.1035   -2.1493    1.1814 C   0  0  0  0  0  0  0  0  0  0  0  0
    0.5891    4.6321    0.3830 C   0  0  0  0  0  0  0  0  0  0  0  0
    0.9248    3.2896    0.1723 C   0  0  0  0  0  0  0  0  0  0  0  0
    1.0708   -0.2661    0.9150 C   0  0  0  0  0  0  0  0  0  0  0  0
    1.0284    0.2101   -0.5458 C   0  0  0  0  0  0  0  0  0  0  0  0
   -1.6187    4.3023   -0.6230 C   0  0  0  0  0  0  0  0  0  0  0  0
   -1.9990   -1.5064   -0.8921 C   0  0  0  0  0  0  0  0  0  0  0  0
   -2.5815   -3.4340    1.0621 C   0  0  0  0  0  0  0  0  0  0  0  0
   -0.6638    5.1273   -0.0096 C   0  0  0  0  0  0  0  0  0  0  0  0
   -1.2824    2.9590   -0.8357 C   0  0  0  0  0  0  0  0  0  0  0  0
   -0.0395    2.4793   -0.4416 C   0  0  0  0  0  0  0  0  0  0  0  0
   -1.6743   -0.4729   -1.9662 C   0  0  0  0  0  0  0  0  0  0  0  0
   -2.7971   -0.2881   -2.9781 C   0  0  0  0  0  0  0  0  0  0  0  0
   -1.2768    0.8772   -1.4015 C   0  0  0  0  0  0  0  0  0  0  0  0
   -2.9255   -4.6142    2.2656 Cl  0  0  0  0  0  0  0  0  0  0  0  0
   -4.0423   -0.5593   -2.7964 N   0  0  0  0  0  0  0  0  0  0  0  0
   -2.0255    1.9676   -1.4114 N   0  0  0  0  0  0  0  0  0  0  0  0
    2.1821   -1.1415    1.3153 N   0  0  0  0  0  0  0  0  0  0  0  0
   -0.0647    1.1426   -0.7885 N   0  0  0  0  0  0  0  0  0  0  0  0
   -0.9855    6.5407    0.2231 N   0  0  0  0  0  4  0  0  0  0  0  0
   -2.3913    0.1995   -4.1646 O   0  0  0  0  0  0  0  0  0  0  0  0
   -0.1265    7.2434    0.7756 O   0  0  0  0  0  1  0  0  0  0  0  0
   -2.0943    6.9512   -0.1474 O   0  0  0  0  0  0  0  0  0  0  0  0
    4.4257   -1.2648    2.8712 H   0  0  0  0  0  0  0  0  0  0  0  0
    4.7567   -2.3357    1.4926 H   0  0  0  0  0  0  0  0  0  0  0  0
    5.5748   -0.7766    1.6173 H   0  0  0  0  0  0  0  0  0  0  0  0
    3.3607   -2.9238   -0.5853 H   0  0  0  0  0  0  0  0  0  0  0  0
    1.6944   -2.6115   -1.1053 H   0  0  0  0  0  0  0  0  0  0  0  0
    2.1200   -4.1590   -0.3833 H   0  0  0  0  0  0  0  0  0  0  0  0
    3.7290   -0.6647   -0.0605 H   0  0  0  0  0  0  0  0  0  0  0  0
    3.5377    0.4549    1.2822 H   0  0  0  0  0  0  0  0  0  0  0  0
    0.9350   -2.8366    1.2975 H   0  0  0  0  0  0  0  0  0  0  0  0
    2.5679   -3.1388    1.7830 H   0  0  0  0  0  0  0  0  0  0  0  0
   -0.8844   -3.1015   -1.8560 H   0  0  0  0  0  0  0  0  0  0  0  0
   -3.2558   -0.1970    0.2973 H   0  0  0  0  0  0  0  0  0  0  0  0
   -1.3898   -4.7801   -0.1282 H   0  0  0  0  0  0  0  0  0  0  0  0
   -3.7396   -1.8866    2.0223 H   0  0  0  0  0  0  0  0  0  0  0  0
    1.3222    5.2818    0.8599 H   0  0  0  0  0  0  0  0  0  0  0  0
    1.8921    2.9043    0.4795 H   0  0  0  0  0  0  0  0  0  0  0  0
    1.1151    0.6156    1.5681 H   0  0  0  0  0  0  0  0  0  0  0  0
    0.1165   -0.7382    1.1787 H   0  0  0  0  0  0  0  0  0  0  0  0
    1.9496    0.7349   -0.8228 H   0  0  0  0  0  0  0  0  0  0  0  0
    0.9229   -0.6249   -1.2377 H   0  0  0  0  0  0  0  0  0  0  0  0
   -2.5929    4.6637   -0.9347 H   0  0  0  0  0  0  0  0  0  0  0  0
   -0.8216   -0.8470   -2.5502 H   0  0  0  0  0  0  0  0  0  0  0  0
   -4.6080   -0.3481   -3.6164 H   0  0  0  0  0  0  0  0  0  0  0  0
   -3.1436    0.4181   -4.7326 H   0  0  0  0  0  0  0  0  0  0  0  0
  1  3  1  0
  2  4  1  0
  3 25  1  0
  4 25  1  0
  5  7  2  0
  5 14  1  0
  6  8  1  0
  6 14  2  0
  7 15  1  0
  8 15  2  0
  9 10  2  0
  9 16  1  0
 10 18  1  0
 11 12  1  0
 11 25  1  0
 12 26  1  0
 13 16  2  0
 13 17  1  0
 14 19  1  0
 15 22  1  0
 16 27  1  0
 17 18  2  0
 17 24  1  0
 18 26  1  0
 19 20  1  0
 19 21  1  0
 20 23  2  3
 20 28  1  0
 21 24  2  0
 21 26  1  0
 27 29  1  0
 27 30  2  0
  1 31  1  0
  1 32  1  0
  1 33  1  0
  2 34  1  0
  2 35  1  0
  2 36  1  0
  3 37  1  0
  3 38  1  0
  4 39  1  0
  4 40  1  0
  5 41  1  0
  6 42  1  0
  7 43  1  0
  8 44  1  0
  9 45  1  0
 10 46  1  0
 11 47  1  0
 11 48  1  0
 12 49  1  0
 12 50  1  0
 13 51  1  0
 19 52  1  0
 23 53  1  0
 28 54  1  0
M  CHG  2  27   1  29  -1
M  END
