
     RDKit          3D

 53 56  0  0  0  0  0  0  0  0999 V2000
   -4.2877   -2.2319    3.0406 C   0  0  0  0  0  0  0  0  0  0  0  0
   -5.6393   -2.1250    2.7626 C   0  0  0  0  0  0  0  0  0  0  0  0
   -0.6210    0.2540    1.4172 C   0  0  0  0  0  0  0  0  0  0  0  0
   -3.3488   -1.6168    2.2018 C   0  0  0  0  0  0  0  0  0  0  0  0
   -6.0429   -1.4017    1.6472 C   0  0  0  0  0  0  0  0  0  0  0  0
   -3.6399    2.6152   -2.8534 C   0  0  0  0  0  0  0  0  0  0  0  0
   -4.6569    1.8866   -2.2485 C   0  0  0  0  0  0  0  0  0  0  0  0
    0.7662   -0.2818    1.7894 C   0  0  0  0  0  0  0  0  0  0  0  0
   -1.3338   -0.6392    0.3890 C   0  0  0  0  0  0  0  0  0  0  0  0
    2.0546    0.9544    0.1066 C   0  0  0  0  0  0  0  0  0  0  0  0
    2.8985   -1.1331    0.9906 C   0  0  0  0  0  0  0  0  0  0  0  0
    3.4331    1.0258   -0.6066 C   0  0  0  0  0  0  0  0  0  0  0  0
    3.8485   -1.3282   -0.2244 C   0  0  0  0  0  0  0  0  0  0  0  0
    4.9698   -0.1872   -2.1036 C   0  0  0  0  0  0  0  0  0  0  0  0
    6.3011    0.3043   -1.5027 C   0  0  0  0  0  0  0  0  0  0  0  0
   -2.0449    1.4604   -1.4537 C   0  0  0  0  0  0  0  0  0  0  0  0
   -2.3344    2.3979   -2.4500 C   0  0  0  0  0  0  0  0  0  0  0  0
   -3.7175   -0.8750    1.0552 C   0  0  0  0  0  0  0  0  0  0  0  0
   -3.0505    0.7008   -0.8151 C   0  0  0  0  0  0  0  0  0  0  0  0
   -5.1013   -0.7789    0.8014 C   0  0  0  0  0  0  0  0  0  0  0  0
   -4.3745    0.9430   -1.2391 C   0  0  0  0  0  0  0  0  0  0  0  0
   -1.0579    3.2964   -3.1731 Cl  0  0  0  0  0  0  0  0  0  0  0  0
    1.6854   -0.3734    0.6526 N   0  0  0  0  0  0  0  0  0  0  0  0
    3.7972   -0.2508   -1.2218 N   0  0  0  0  0  0  0  0  0  0  0  0
   -2.7544   -0.2383    0.2163 N   0  0  0  0  0  0  0  0  0  0  0  0
    6.2851    1.7112   -1.2703 O   0  0  0  0  0  0  0  0  0  0  0  0
   -5.7879    0.0829   -0.5918 S   0  0  0  0  0  0  0  0  0  0  0  0
   -3.9530   -2.7894    3.9117 H   0  0  0  0  0  0  0  0  0  0  0  0
   -6.3759   -2.5980    3.4064 H   0  0  0  0  0  0  0  0  0  0  0  0
   -0.5463    1.2841    1.0516 H   0  0  0  0  0  0  0  0  0  0  0  0
   -1.2141    0.3194    2.3369 H   0  0  0  0  0  0  0  0  0  0  0  0
   -2.3107   -1.7304    2.4963 H   0  0  0  0  0  0  0  0  0  0  0  0
   -7.1075   -1.3234    1.4337 H   0  0  0  0  0  0  0  0  0  0  0  0
   -3.8737    3.3406   -3.6266 H   0  0  0  0  0  0  0  0  0  0  0  0
   -5.6835    2.0568   -2.5687 H   0  0  0  0  0  0  0  0  0  0  0  0
    1.1950    0.3423    2.5839 H   0  0  0  0  0  0  0  0  0  0  0  0
    0.6252   -1.2803    2.2241 H   0  0  0  0  0  0  0  0  0  0  0  0
   -0.8029   -0.6319   -0.5709 H   0  0  0  0  0  0  0  0  0  0  0  0
   -1.2622   -1.6950    0.6809 H   0  0  0  0  0  0  0  0  0  0  0  0
    2.0574    1.7173    0.8957 H   0  0  0  0  0  0  0  0  0  0  0  0
    1.2835    1.2392   -0.6168 H   0  0  0  0  0  0  0  0  0  0  0  0
    3.4459   -0.6170    1.7913 H   0  0  0  0  0  0  0  0  0  0  0  0
    2.6304   -2.1263    1.3716 H   0  0  0  0  0  0  0  0  0  0  0  0
    4.1871    1.3176    0.1354 H   0  0  0  0  0  0  0  0  0  0  0  0
    3.3856    1.8197   -1.3613 H   0  0  0  0  0  0  0  0  0  0  0  0
    4.8599   -1.4662    0.1730 H   0  0  0  0  0  0  0  0  0  0  0  0
    3.5748   -2.2601   -0.7327 H   0  0  0  0  0  0  0  0  0  0  0  0
    5.1300   -1.1878   -2.5263 H   0  0  0  0  0  0  0  0  0  0  0  0
    4.7137    0.4594   -2.9520 H   0  0  0  0  0  0  0  0  0  0  0  0
    7.1102    0.0992   -2.2121 H   0  0  0  0  0  0  0  0  0  0  0  0
    6.5365   -0.2049   -0.5646 H   0  0  0  0  0  0  0  0  0  0  0  0
   -1.0014    1.3540   -1.1822 H   0  0  0  0  0  0  0  0  0  0  0  0
    7.1503    1.9470   -0.8948 H   0  0  0  0  0  0  0  0  0  0  0  0
  1  2  2  0
  1  4  1  0
  2  5  1  0
  3  8  1  0
  3  9  1  0
  4 18  2  0
  5 20  2  0
  6  7  1  0
  6 17  2  0
  7 21  2  0
  8 23  1  0
  9 25  1  0
 10 12  1  0
 10 23  1  0
 11 13  1  0
 11 23  1  0
 12 24  1  0
 13 24  1  0
 14 15  1  0
 14 24  1  0
 15 26  1  0
 16 17  1  0
 16 19  2  0
 17 22  1  0
 18 20  1  0
 18 25  1  0
 19 21  1  0
 19 25  1  0
 20 27  1  0
 21 27  1  0
  1 28  1  0
  2 29  1  0
  3 30  1  0
  3 31  1  0
  4 32  1  0
  5 33  1  0
  6 34  1  0
  7 35  1  0
  8 36  1  0
  8 37  1  0
  9 38  1  0
  9 39  1  0
 10 40  1  0
 10 41  1  0
 11 42  1  0
 11 43  1  0
 12 44  1  0
 12 45  1  0
 13 46  1  0
 13 47  1  0
 14 48  1  0
 14 49  1  0
 15 50  1  0
 15 51  1  0
 16 52  1  0
 26 53  1  0
M  END
