
     RDKit          3D

 53 55  0  0  0  0  0  0  0  0999 V2000
   -4.1285   -1.3966    3.0068 C   0  0  0  0  0  0  0  0  0  0  0  0
   -1.9702   -3.3391   -0.2937 C   0  0  0  0  0  0  0  0  0  0  0  0
    5.3521   -2.7264    1.1037 C   0  0  0  0  0  0  0  0  0  0  0  0
   -3.0458   -0.6736    2.2117 C   0  0  0  0  0  0  0  0  0  0  0  0
   -2.0832   -2.5771    1.0231 C   0  0  0  0  0  0  0  0  0  0  0  0
    3.1319   -2.9300   -0.0644 C   0  0  0  0  0  0  0  0  0  0  0  0
    4.3054   -0.8275   -0.1724 C   0  0  0  0  0  0  0  0  0  0  0  0
    2.1051   -2.3978   -0.8484 C   0  0  0  0  0  0  0  0  0  0  0  0
    3.2794   -0.2948   -0.9564 C   0  0  0  0  0  0  0  0  0  0  0  0
   -1.1946    4.6465    0.0705 C   0  0  0  0  0  0  0  0  0  0  0  0
   -1.1797    3.2708    0.3282 C   0  0  0  0  0  0  0  0  0  0  0  0
   -2.1512   -0.3378   -0.0299 C   0  0  0  0  0  0  0  0  0  0  0  0
   -0.7332    0.1311    0.3308 C   0  0  0  0  0  0  0  0  0  0  0  0
    1.0461   -0.5037   -2.1477 C   0  0  0  0  0  0  0  0  0  0  0  0
    0.2080    4.3542   -1.9158 C   0  0  0  0  0  0  0  0  0  0  0  0
    4.2321   -2.1440    0.2937 C   0  0  0  0  0  0  0  0  0  0  0  0
    2.1569   -1.0672   -1.2870 C   0  0  0  0  0  0  0  0  0  0  0  0
   -0.5100    5.1765   -1.0342 C   0  0  0  0  0  0  0  0  0  0  0  0
    0.2238    2.9767   -1.6593 C   0  0  0  0  0  0  0  0  0  0  0  0
   -0.4565    2.4641   -0.5599 C   0  0  0  0  0  0  0  0  0  0  0  0
    0.5669    0.8544   -1.7241 C   0  0  0  0  0  0  0  0  0  0  0  0
    0.8401    1.9777   -2.3617 N   0  0  0  0  0  0  0  0  0  0  0  0
   -2.7918   -1.2927    0.8990 N   0  0  0  0  0  0  0  0  0  0  0  0
   -0.2260    1.1052   -0.6228 N   0  0  0  0  0  0  0  0  0  0  0  0
   -0.5443    6.6242   -1.2763 N   0  0  0  0  0  4  0  0  0  0  0  0
   -1.1950    7.3246   -0.4871 O   0  0  0  0  0  1  0  0  0  0  0  0
    0.0782    7.0634   -2.2534 O   0  0  0  0  0  0  0  0  0  0  0  0
   -4.3792   -0.8188    3.9028 H   0  0  0  0  0  0  0  0  0  0  0  0
   -3.8049   -2.3872    3.3387 H   0  0  0  0  0  0  0  0  0  0  0  0
   -5.0434   -1.5093    2.4156 H   0  0  0  0  0  0  0  0  0  0  0  0
   -1.3043   -2.8387   -1.0016 H   0  0  0  0  0  0  0  0  0  0  0  0
   -1.5605   -4.3383   -0.1112 H   0  0  0  0  0  0  0  0  0  0  0  0
   -2.9514   -3.4611   -0.7645 H   0  0  0  0  0  0  0  0  0  0  0  0
    4.9787   -3.4909    1.7930 H   0  0  0  0  0  0  0  0  0  0  0  0
    5.8392   -1.9546    1.7087 H   0  0  0  0  0  0  0  0  0  0  0  0
    6.0963   -3.1796    0.4420 H   0  0  0  0  0  0  0  0  0  0  0  0
   -3.4009    0.3549    2.0681 H   0  0  0  0  0  0  0  0  0  0  0  0
   -2.1274   -0.6121    2.8080 H   0  0  0  0  0  0  0  0  0  0  0  0
   -2.6318   -3.2346    1.7060 H   0  0  0  0  0  0  0  0  0  0  0  0
   -1.0853   -2.4423    1.4568 H   0  0  0  0  0  0  0  0  0  0  0  0
    3.0713   -3.9667    0.2597 H   0  0  0  0  0  0  0  0  0  0  0  0
    5.1662   -0.2062    0.0658 H   0  0  0  0  0  0  0  0  0  0  0  0
    1.2678   -3.0368   -1.1189 H   0  0  0  0  0  0  0  0  0  0  0  0
    3.3649    0.7312   -1.3135 H   0  0  0  0  0  0  0  0  0  0  0  0
   -1.7498    5.2952    0.7471 H   0  0  0  0  0  0  0  0  0  0  0  0
   -1.7098    2.8590    1.1810 H   0  0  0  0  0  0  0  0  0  0  0  0
   -2.1490   -0.7631   -1.0410 H   0  0  0  0  0  0  0  0  0  0  0  0
   -2.8080    0.5381   -0.1227 H   0  0  0  0  0  0  0  0  0  0  0  0
   -0.7071    0.6046    1.3183 H   0  0  0  0  0  0  0  0  0  0  0  0
   -0.0345   -0.7066    0.3664 H   0  0  0  0  0  0  0  0  0  0  0  0
    0.1903   -1.1891   -2.1639 H   0  0  0  0  0  0  0  0  0  0  0  0
    1.4137   -0.4502   -3.1803 H   0  0  0  0  0  0  0  0  0  0  0  0
    0.7428    4.7420   -2.7763 H   0  0  0  0  0  0  0  0  0  0  0  0
  1  4  1  0
  2  5  1  0
  3 16  1  0
  4 23  1  0
  5 23  1  0
  6  8  2  0
  6 16  1  0
  7  9  1  0
  7 16  2  0
  8 17  1  0
  9 17  2  0
 10 11  2  0
 10 18  1  0
 11 20  1  0
 12 13  1  0
 12 23  1  0
 13 24  1  0
 14 17  1  0
 14 21  1  0
 15 18  2  0
 15 19  1  0
 18 25  1  0
 19 20  2  0
 19 22  1  0
 20 24  1  0
 21 22  2  0
 21 24  1  0
 25 26  1  0
 25 27  2  0
  1 28  1  0
  1 29  1  0
  1 30  1  0
  2 31  1  0
  2 32  1  0
  2 33  1  0
  3 34  1  0
  3 35  1  0
  3 36  1  0
  4 37  1  0
  4 38  1  0
  5 39  1  0
  5 40  1  0
  6 41  1  0
  7 42  1  0
  8 43  1  0
  9 44  1  0
 10 45  1  0
 11 46  1  0
 12 47  1  0
 12 48  1  0
 13 49  1  0
 13 50  1  0
 14 51  1  0
 14 52  1  0
 15 53  1  0
M  CHG  2  25   1  26  -1
M  END
