
     RDKit          3D

 53 55  0  0  0  0  0  0  0  0999 V2000
   -4.6172    3.4368   -0.6379 C   0  0  0  0  0  0  0  0  0  0  0  0
   -0.5533    0.4336    2.3214 C   0  0  0  0  0  0  0  0  0  0  0  0
   -4.2592    1.9602   -0.5711 C   0  0  0  0  0  0  0  0  0  0  0  0
   -4.8767   -2.8678   -0.6207 C   0  0  0  0  0  0  0  0  0  0  0  0
   -4.4176   -2.4816    0.6386 C   0  0  0  0  0  0  0  0  0  0  0  0
   -4.4838   -2.1597   -1.7558 C   0  0  0  0  0  0  0  0  0  0  0  0
    7.8161   -0.5422   -0.6593 C   0  0  0  0  0  0  0  0  0  0  0  0
   -3.5647   -1.3840    0.7653 C   0  0  0  0  0  0  0  0  0  0  0  0
   -3.6314   -1.0617   -1.6325 C   0  0  0  0  0  0  0  0  0  0  0  0
    6.4875   -0.3667   -1.1427 C   0  0  0  0  0  0  0  0  0  0  0  0
    4.2244    0.6399   -0.3667 C   0  0  0  0  0  0  0  0  0  0  0  0
   -0.3700   -1.2717   -0.2719 C   0  0  0  0  0  0  0  0  0  0  0  0
    3.3189   -0.5130    0.1038 C   0  0  0  0  0  0  0  0  0  0  0  0
    1.0935   -1.4611    0.1440 C   0  0  0  0  0  0  0  0  0  0  0  0
    7.9768   -0.0231    0.6055 C   0  0  0  0  0  0  0  0  0  0  0  0
    1.4062    0.8718    0.7440 C   0  0  0  0  0  0  0  0  0  0  0  0
   -0.1271    0.9423    0.9390 C   0  0  0  0  0  0  0  0  0  0  0  0
   -3.1717   -0.6715   -0.3707 C   0  0  0  0  0  0  0  0  0  0  0  0
    5.6783    0.2808   -0.2293 C   0  0  0  0  0  0  0  0  0  0  0  0
   -0.8356    0.2028   -0.2222 C   0  0  0  0  0  0  0  0  0  0  0  0
   -2.7489    1.7319   -0.5872 C   0  0  0  0  0  0  0  0  0  0  0  0
    1.8782   -0.2514   -0.0876 N   0  0  0  0  0  0  0  0  0  0  0  0
   -2.3057    0.4436   -0.2361 N   0  0  0  0  0  0  0  0  0  0  0  0
   -1.9735    2.6497   -0.8642 O   0  0  0  0  0  0  0  0  0  0  0  0
    6.5343    0.6745    1.2022 S   0  0  0  0  0  0  0  0  0  0  0  0
   -4.2492    3.8906   -1.5644 H   0  0  0  0  0  0  0  0  0  0  0  0
   -5.7038    3.5660   -0.6044 H   0  0  0  0  0  0  0  0  0  0  0  0
   -4.1794    3.9868    0.2028 H   0  0  0  0  0  0  0  0  0  0  0  0
   -1.6227    0.6033    2.4829 H   0  0  0  0  0  0  0  0  0  0  0  0
   -0.3565   -0.6321    2.4619 H   0  0  0  0  0  0  0  0  0  0  0  0
   -0.0214    0.9771    3.1093 H   0  0  0  0  0  0  0  0  0  0  0  0
   -4.6792    1.5381    0.3477 H   0  0  0  0  0  0  0  0  0  0  0  0
   -4.7077    1.4597   -1.4339 H   0  0  0  0  0  0  0  0  0  0  0  0
   -5.5401   -3.7235   -0.7193 H   0  0  0  0  0  0  0  0  0  0  0  0
   -4.7244   -3.0355    1.5220 H   0  0  0  0  0  0  0  0  0  0  0  0
   -4.8402   -2.4634   -2.7361 H   0  0  0  0  0  0  0  0  0  0  0  0
    8.6134   -1.0250   -1.2122 H   0  0  0  0  0  0  0  0  0  0  0  0
   -3.2153   -1.0896    1.7493 H   0  0  0  0  0  0  0  0  0  0  0  0
   -3.3214   -0.5212   -2.5237 H   0  0  0  0  0  0  0  0  0  0  0  0
    6.1411   -0.7005   -2.1135 H   0  0  0  0  0  0  0  0  0  0  0  0
    4.0163    1.5561    0.1975 H   0  0  0  0  0  0  0  0  0  0  0  0
    4.0120    0.8657   -1.4196 H   0  0  0  0  0  0  0  0  0  0  0  0
   -0.9695   -1.9158    0.3796 H   0  0  0  0  0  0  0  0  0  0  0  0
   -0.5109   -1.6448   -1.2947 H   0  0  0  0  0  0  0  0  0  0  0  0
    3.5924   -1.4038   -0.4794 H   0  0  0  0  0  0  0  0  0  0  0  0
    3.5268   -0.7571    1.1545 H   0  0  0  0  0  0  0  0  0  0  0  0
    1.1552   -1.7632    1.1971 H   0  0  0  0  0  0  0  0  0  0  0  0
    1.4947   -2.3007   -0.4373 H   0  0  0  0  0  0  0  0  0  0  0  0
    8.8729   -0.0171    1.2108 H   0  0  0  0  0  0  0  0  0  0  0  0
    1.7142    1.7986    0.2450 H   0  0  0  0  0  0  0  0  0  0  0  0
    1.8970    0.8677    1.7257 H   0  0  0  0  0  0  0  0  0  0  0  0
   -0.3981    2.0055    0.9196 H   0  0  0  0  0  0  0  0  0  0  0  0
   -0.4740    0.6658   -1.1541 H   0  0  0  0  0  0  0  0  0  0  0  0
  1  3  1  0
  2 17  1  0
  3 21  1  0
  4  5  2  0
  4  6  1  0
  5  8  1  0
  6  9  2  0
  7 10  1  0
  7 15  2  0
  8 18  2  0
  9 18  1  0
 10 19  2  0
 11 13  1  0
 11 19  1  0
 12 14  1  0
 12 20  1  0
 13 22  1  0
 14 22  1  0
 15 25  1  0
 16 17  1  0
 16 22  1  0
 17 20  1  0
 18 23  1  0
 19 25  1  0
 20 23  1  0
 21 23  1  0
 21 24  2  0
  1 26  1  0
  1 27  1  0
  1 28  1  0
  2 29  1  0
  2 30  1  0
  2 31  1  0
  3 32  1  0
  3 33  1  0
  4 34  1  0
  5 35  1  0
  6 36  1  0
  7 37  1  0
  8 38  1  0
  9 39  1  0
 10 40  1  0
 11 41  1  0
 11 42  1  0
 12 43  1  0
 12 44  1  0
 13 45  1  0
 13 46  1  0
 14 47  1  0
 14 48  1  0
 15 49  1  0
 16 50  1  0
 16 51  1  0
 17 52  1  0
 20 53  1  0
M  END
