
     RDKit          3D

 50 54  0  0  0  0  0  0  0  0999 V2000
    5.6173    1.5453    0.1564 C   0  0  0  0  0  0  0  0  0  0  0  0
   -1.2122    5.6891   -0.9032 C   0  0  0  0  0  0  0  0  0  0  0  0
   -2.6172   -3.7284    1.4538 C   0  0  0  0  0  0  0  0  0  0  0  0
    1.8336   -2.7243   -1.3463 C   0  0  0  0  0  0  0  0  0  0  0  0
   -2.9392    0.3312   -0.3615 C   0  0  0  0  0  0  0  0  0  0  0  0
    2.9676   -1.8673   -1.3243 C   0  0  0  0  0  0  0  0  0  0  0  0
   -2.6281    1.5999    0.0092 C   0  0  0  0  0  0  0  0  0  0  0  0
   -0.6904   -0.4744    1.5434 C   0  0  0  0  0  0  0  0  0  0  0  0
   -1.0859   -1.9156    1.8909 C   0  0  0  0  0  0  0  0  0  0  0  0
   -0.7289   -3.0005   -0.9662 C   0  0  0  0  0  0  0  0  0  0  0  0
    4.5210    0.5300    0.2895 C   0  0  0  0  0  0  0  0  0  0  0  0
   -1.3882    4.5207    0.0178 C   0  0  0  0  0  0  0  0  0  0  0  0
    0.5920   -2.2529   -0.9291 C   0  0  0  0  0  0  0  0  0  0  0  0
   -1.8673   -0.6938   -0.7135 C   0  0  0  0  0  0  0  0  0  0  0  0
   -1.9967   -2.2135   -0.3738 C   0  0  0  0  0  0  0  0  0  0  0  0
    2.8638   -0.5262   -0.9054 C   0  0  0  0  0  0  0  0  0  0  0  0
   -1.1933    2.1573    0.1362 C   0  0  0  0  0  0  0  0  0  0  0  0
    0.5714   -0.9391   -0.5116 C   0  0  0  0  0  0  0  0  0  0  0  0
    1.6328   -0.0510   -0.5340 C   0  0  0  0  0  0  0  0  0  0  0  0
   -0.2068    1.1408   -0.4601 C   0  0  0  0  0  0  0  0  0  0  0  0
   -0.6124   -0.2478    0.0078 C   0  0  0  0  0  0  0  0  0  0  0  0
   -2.2222   -2.3728    1.0823 N   0  0  0  0  0  0  0  0  0  0  0  0
    4.2154   -0.0135    1.3431 O   0  0  0  0  0  0  0  0  0  0  0  0
   -1.7486    4.6104    1.1823 O   0  0  0  0  0  0  0  0  0  0  0  0
    3.9702    0.3062   -0.9658 O   0  0  0  0  0  0  0  0  0  0  0  0
   -1.0999    3.3673   -0.6396 O   0  0  0  0  0  0  0  0  0  0  0  0
    1.2294    1.2372   -0.1937 O   0  0  0  0  0  0  0  0  0  0  0  0
    6.0128    1.7831    1.1481 H   0  0  0  0  0  0  0  0  0  0  0  0
    5.2214    2.4635   -0.2850 H   0  0  0  0  0  0  0  0  0  0  0  0
    6.4253    1.1394   -0.4571 H   0  0  0  0  0  0  0  0  0  0  0  0
   -1.9115    5.6102   -1.7393 H   0  0  0  0  0  0  0  0  0  0  0  0
   -0.1814    5.7243   -1.2649 H   0  0  0  0  0  0  0  0  0  0  0  0
   -1.4206    6.6145   -0.3588 H   0  0  0  0  0  0  0  0  0  0  0  0
   -1.8131   -4.4588    1.3200 H   0  0  0  0  0  0  0  0  0  0  0  0
   -2.9256   -3.7578    2.5050 H   0  0  0  0  0  0  0  0  0  0  0  0
   -3.4831   -4.0551    0.8678 H   0  0  0  0  0  0  0  0  0  0  0  0
    1.9456   -3.7469   -1.6985 H   0  0  0  0  0  0  0  0  0  0  0  0
   -3.9778    0.0167   -0.4226 H   0  0  0  0  0  0  0  0  0  0  0  0
    3.9301   -2.2528   -1.6520 H   0  0  0  0  0  0  0  0  0  0  0  0
   -3.4304    2.2863    0.2718 H   0  0  0  0  0  0  0  0  0  0  0  0
   -1.4303    0.1909    2.0029 H   0  0  0  0  0  0  0  0  0  0  0  0
    0.2639   -0.2406    2.0334 H   0  0  0  0  0  0  0  0  0  0  0  0
   -0.2222   -2.5820    1.7762 H   0  0  0  0  0  0  0  0  0  0  0  0
   -1.3553   -1.9438    2.9542 H   0  0  0  0  0  0  0  0  0  0  0  0
   -0.9478   -3.2023   -2.0233 H   0  0  0  0  0  0  0  0  0  0  0  0
   -0.6122   -3.9724   -0.4769 H   0  0  0  0  0  0  0  0  0  0  0  0
   -1.7522   -0.6324   -1.8070 H   0  0  0  0  0  0  0  0  0  0  0  0
   -2.8891   -2.5930   -0.8893 H   0  0  0  0  0  0  0  0  0  0  0  0
   -0.9393    2.3548    1.1840 H   0  0  0  0  0  0  0  0  0  0  0  0
   -0.2844    1.2400   -1.5592 H   0  0  0  0  0  0  0  0  0  0  0  0
  1 11  1  0
  2 12  1  0
  3 22  1  0
  4  6  2  0
  4 13  1  0
  5  7  2  0
  5 14  1  0
  6 16  1  0
  7 17  1  0
  8  9  1  0
  8 21  1  0
  9 22  1  0
 10 13  1  0
 10 15  1  0
 11 23  2  0
 11 25  1  0
 12 24  2  0
 12 26  1  0
 13 18  2  0
 14 15  1  0
 14 21  1  0
 15 22  1  0
 16 19  2  0
 16 25  1  0
 17 20  1  0
 17 26  1  0
 18 19  1  0
 18 21  1  0
 19 27  1  0
 20 21  1  0
 20 27  1  0
  1 28  1  0
  1 29  1  0
  1 30  1  0
  2 31  1  0
  2 32  1  0
  2 33  1  0
  3 34  1  0
  3 35  1  0
  3 36  1  0
  4 37  1  0
  5 38  1  0
  6 39  1  0
  7 40  1  0
  8 41  1  0
  8 42  1  0
  9 43  1  0
  9 44  1  0
 10 45  1  0
 10 46  1  0
 14 47  1  0
 15 48  1  0
 17 49  1  0
 20 50  1  0
M  END
