
     RDKit          3D

 54 56  0  0  0  0  0  0  0  0999 V2000
   -6.9221    1.6079   -0.4364 C   0  0  0  0  0  0  0  0  0  0  0  0
    6.7324    1.0490   -1.2869 C   0  0  0  0  0  0  0  0  0  0  0  0
    4.7859    2.0008    1.2875 C   0  0  0  0  0  0  0  0  0  0  0  0
   -5.4828    1.7379    0.0373 C   0  0  0  0  0  0  0  0  0  0  0  0
    5.3340    0.4415   -1.3047 C   0  0  0  0  0  0  0  0  0  0  0  0
    4.1255    0.7071    0.8254 C   0  0  0  0  0  0  0  0  0  0  0  0
   -4.4491    1.4408   -1.0516 C   0  0  0  0  0  0  0  0  0  0  0  0
   -0.8561   -0.2879    3.3905 C   0  0  0  0  0  0  0  0  0  0  0  0
   -2.2432   -0.2057    3.4028 C   0  0  0  0  0  0  0  0  0  0  0  0
   -4.4913    0.0239   -1.6346 C   0  0  0  0  0  0  0  0  0  0  0  0
   -0.1783   -0.6289    2.2168 C   0  0  0  0  0  0  0  0  0  0  0  0
   -2.9883   -0.4563    2.2467 C   0  0  0  0  0  0  0  0  0  0  0  0
   -4.1416   -1.0945   -0.6482 C   0  0  0  0  0  0  0  0  0  0  0  0
    4.4698   -1.5181   -0.1067 C   0  0  0  0  0  0  0  0  0  0  0  0
   -1.6968   -1.3828   -1.0270 C   0  0  0  0  0  0  0  0  0  0  0  0
    2.9192   -1.9589   -2.1228 C   0  0  0  0  0  0  0  0  0  0  0  0
    3.1376   -1.6148   -0.8015 C   0  0  0  0  0  0  0  0  0  0  0  0
   -0.9036   -0.8890    1.0335 C   0  0  0  0  0  0  0  0  0  0  0  0
   -0.5384   -1.2622   -0.2922 C   0  0  0  0  0  0  0  0  0  0  0  0
   -2.3018   -0.7913    1.0668 C   0  0  0  0  0  0  0  0  0  0  0  0
    0.9146   -1.5032   -0.8426 C   0  0  0  0  0  0  0  0  0  0  0  0
    1.9766   -1.3756   -0.0753 N   0  0  0  0  0  0  0  0  0  0  0  0
    5.0020   -0.1425   -0.0001 N   0  0  0  0  0  0  0  0  0  0  0  0
   -2.7551   -1.0745   -0.2068 N   0  0  0  0  0  0  0  0  0  0  0  0
    1.2435   -1.9471   -2.4701 S   0  0  0  0  0  0  0  0  0  0  0  0
   -7.1024    2.2247   -1.3223 H   0  0  0  0  0  0  0  0  0  0  0  0
   -7.6076    1.9379    0.3511 H   0  0  0  0  0  0  0  0  0  0  0  0
   -7.1725    0.5707   -0.6776 H   0  0  0  0  0  0  0  0  0  0  0  0
    6.8229    1.8720   -0.5742 H   0  0  0  0  0  0  0  0  0  0  0  0
    7.4834    0.2940   -1.0314 H   0  0  0  0  0  0  0  0  0  0  0  0
    6.9799    1.4422   -2.2783 H   0  0  0  0  0  0  0  0  0  0  0  0
    4.9449    2.6924    0.4552 H   0  0  0  0  0  0  0  0  0  0  0  0
    4.1415    2.5081    2.0133 H   0  0  0  0  0  0  0  0  0  0  0  0
    5.7467    1.8047    1.7744 H   0  0  0  0  0  0  0  0  0  0  0  0
   -5.3252    2.7652    0.3882 H   0  0  0  0  0  0  0  0  0  0  0  0
   -5.3283    1.0890    0.9037 H   0  0  0  0  0  0  0  0  0  0  0  0
    4.5956    1.1878   -1.6218 H   0  0  0  0  0  0  0  0  0  0  0  0
    5.3478   -0.3237   -2.0904 H   0  0  0  0  0  0  0  0  0  0  0  0
    3.8446    0.1581    1.7330 H   0  0  0  0  0  0  0  0  0  0  0  0
    3.1963    0.9570    0.2995 H   0  0  0  0  0  0  0  0  0  0  0  0
   -3.4483    1.6437   -0.6525 H   0  0  0  0  0  0  0  0  0  0  0  0
   -4.5969    2.1523   -1.8739 H   0  0  0  0  0  0  0  0  0  0  0  0
   -0.2909   -0.0907    4.2976 H   0  0  0  0  0  0  0  0  0  0  0  0
   -2.7574    0.0565    4.3244 H   0  0  0  0  0  0  0  0  0  0  0  0
   -5.4854   -0.1732   -2.0516 H   0  0  0  0  0  0  0  0  0  0  0  0
   -3.7992   -0.0126   -2.4854 H   0  0  0  0  0  0  0  0  0  0  0  0
    0.9065   -0.6974    2.2175 H   0  0  0  0  0  0  0  0  0  0  0  0
   -4.0702   -0.3910    2.2792 H   0  0  0  0  0  0  0  0  0  0  0  0
   -4.2902   -2.0668   -1.1343 H   0  0  0  0  0  0  0  0  0  0  0  0
   -4.7986   -1.0795    0.2249 H   0  0  0  0  0  0  0  0  0  0  0  0
    5.2036   -2.1507   -0.6228 H   0  0  0  0  0  0  0  0  0  0  0  0
    4.3777   -1.9498    0.8983 H   0  0  0  0  0  0  0  0  0  0  0  0
   -1.8586   -1.6522   -2.0622 H   0  0  0  0  0  0  0  0  0  0  0  0
    3.6480   -2.2046   -2.8814 H   0  0  0  0  0  0  0  0  0  0  0  0
  1  4  1  0
  2  5  1  0
  3  6  1  0
  4  7  1  0
  5 23  1  0
  6 23  1  0
  7 10  1  0
  8  9  2  0
  8 11  1  0
  9 12  1  0
 10 13  1  0
 11 18  2  0
 12 20  2  0
 13 24  1  0
 14 17  1  0
 14 23  1  0
 15 19  2  0
 15 24  1  0
 16 17  2  0
 16 25  1  0
 17 22  1  0
 18 19  1  0
 18 20  1  0
 19 21  1  0
 20 24  1  0
 21 22  2  0
 21 25  1  0
  1 26  1  0
  1 27  1  0
  1 28  1  0
  2 29  1  0
  2 30  1  0
  2 31  1  0
  3 32  1  0
  3 33  1  0
  3 34  1  0
  4 35  1  0
  4 36  1  0
  5 37  1  0
  5 38  1  0
  6 39  1  0
  6 40  1  0
  7 41  1  0
  7 42  1  0
  8 43  1  0
  9 44  1  0
 10 45  1  0
 10 46  1  0
 11 47  1  0
 12 48  1  0
 13 49  1  0
 13 50  1  0
 14 51  1  0
 14 52  1  0
 15 53  1  0
 16 54  1  0
M  END
