
     RDKit          3D

 52 55  0  0  0  0  0  0  0  0999 V2000
   -3.5293    3.1660    1.9163 C   0  0  0  0  0  0  0  0  0  0  0  0
   -5.3315   -1.6214   -2.5703 C   0  0  0  0  0  0  0  0  0  0  0  0
   -4.2389    2.3837    2.8247 C   0  0  0  0  0  0  0  0  0  0  0  0
   -5.9744   -2.2031   -1.4821 C   0  0  0  0  0  0  0  0  0  0  0  0
   -2.7711    2.5543    0.9187 C   0  0  0  0  0  0  0  0  0  0  0  0
   -4.0977   -0.9916   -2.3935 C   0  0  0  0  0  0  0  0  0  0  0  0
   -4.1991    0.9902    2.7307 C   0  0  0  0  0  0  0  0  0  0  0  0
   -5.3852   -2.1498   -0.2189 C   0  0  0  0  0  0  0  0  0  0  0  0
    1.0733   -0.6828   -1.1476 C   0  0  0  0  0  0  0  0  0  0  0  0
    1.0286   -0.2144    1.2115 C   0  0  0  0  0  0  0  0  0  0  0  0
    0.3317    0.6440   -1.4383 C   0  0  0  0  0  0  0  0  0  0  0  0
    0.2934    1.1234    0.9525 C   0  0  0  0  0  0  0  0  0  0  0  0
    3.1147    0.1229   -0.0112 C   0  0  0  0  0  0  0  0  0  0  0  0
    7.2032   -1.2120   -0.3642 C   0  0  0  0  0  0  0  0  0  0  0  0
    4.1818   -0.4896   -0.9378 C   0  0  0  0  0  0  0  0  0  0  0  0
    6.3029   -0.0633    0.0877 C   0  0  0  0  0  0  0  0  0  0  0  0
   -2.7261    1.1545    0.8232 C   0  0  0  0  0  0  0  0  0  0  0  0
   -3.4931   -0.9169   -1.1320 C   0  0  0  0  0  0  0  0  0  0  0  0
   -3.4480    0.3642    1.7265 C   0  0  0  0  0  0  0  0  0  0  0  0
   -4.1495   -1.5106   -0.0376 C   0  0  0  0  0  0  0  0  0  0  0  0
   -1.8279    0.5582   -0.2215 C   0  0  0  0  0  0  0  0  0  0  0  0
   -2.2095   -0.3476   -1.0819 N   0  0  0  0  0  0  0  0  0  0  0  0
    1.8890   -0.6859    0.0963 N   0  0  0  0  0  0  0  0  0  0  0  0
   -0.5105    1.0427   -0.2879 N   0  0  0  0  0  0  0  0  0  0  0  0
    8.2000   -1.4888    0.6124 O   0  0  0  0  0  0  0  0  0  0  0  0
    5.3727    0.3067   -0.9283 O   0  0  0  0  0  0  0  0  0  0  0  0
   -3.4846   -1.4160    1.6211 S   0  0  0  0  0  0  0  0  0  0  0  0
   -3.5640    4.2504    1.9855 H   0  0  0  0  0  0  0  0  0  0  0  0
   -5.7804   -1.6654   -3.5590 H   0  0  0  0  0  0  0  0  0  0  0  0
   -4.8310    2.8573    3.6043 H   0  0  0  0  0  0  0  0  0  0  0  0
   -6.9322   -2.6992   -1.6155 H   0  0  0  0  0  0  0  0  0  0  0  0
   -2.2109    3.1643    0.2137 H   0  0  0  0  0  0  0  0  0  0  0  0
   -3.5865   -0.5592   -3.2502 H   0  0  0  0  0  0  0  0  0  0  0  0
   -4.7699    0.3959    3.4412 H   0  0  0  0  0  0  0  0  0  0  0  0
   -5.8985   -2.6040    0.6252 H   0  0  0  0  0  0  0  0  0  0  0  0
    0.3350   -1.4899   -1.0549 H   0  0  0  0  0  0  0  0  0  0  0  0
    1.6851   -0.9562   -2.0133 H   0  0  0  0  0  0  0  0  0  0  0  0
    0.2804   -0.9939    1.4079 H   0  0  0  0  0  0  0  0  0  0  0  0
    1.6186   -0.1358    2.1328 H   0  0  0  0  0  0  0  0  0  0  0  0
    1.0553    1.4440   -1.6349 H   0  0  0  0  0  0  0  0  0  0  0  0
   -0.2635    0.5531   -2.3545 H   0  0  0  0  0  0  0  0  0  0  0  0
    1.0175    1.9405    0.8509 H   0  0  0  0  0  0  0  0  0  0  0  0
   -0.3197    1.3682    1.8254 H   0  0  0  0  0  0  0  0  0  0  0  0
    2.9112    1.1523   -0.3292 H   0  0  0  0  0  0  0  0  0  0  0  0
    3.5647    0.2158    0.9852 H   0  0  0  0  0  0  0  0  0  0  0  0
    6.6205   -2.1243   -0.5228 H   0  0  0  0  0  0  0  0  0  0  0  0
    7.6905   -0.9762   -1.3165 H   0  0  0  0  0  0  0  0  0  0  0  0
    4.3989   -1.5283   -0.6646 H   0  0  0  0  0  0  0  0  0  0  0  0
    3.8259   -0.4885   -1.9723 H   0  0  0  0  0  0  0  0  0  0  0  0
    6.9259    0.8148    0.2925 H   0  0  0  0  0  0  0  0  0  0  0  0
    5.8000   -0.3044    1.0312 H   0  0  0  0  0  0  0  0  0  0  0  0
    8.8123   -0.7328    0.6234 H   0  0  0  0  0  0  0  0  0  0  0  0
  1  3  2  0
  1  5  1  0
  2  4  2  0
  2  6  1  0
  3  7  1  0
  4  8  1  0
  5 17  2  0
  6 18  2  0
  7 19  2  0
  8 20  2  0
  9 11  1  0
  9 23  1  0
 10 12  1  0
 10 23  1  0
 11 24  1  0
 12 24  1  0
 13 15  1  0
 13 23  1  0
 14 16  1  0
 14 25  1  0
 15 26  1  0
 16 26  1  0
 17 19  1  0
 17 21  1  0
 18 20  1  0
 18 22  1  0
 19 27  1  0
 20 27  1  0
 21 22  2  0
 21 24  1  0
  1 28  1  0
  2 29  1  0
  3 30  1  0
  4 31  1  0
  5 32  1  0
  6 33  1  0
  7 34  1  0
  8 35  1  0
  9 36  1  0
  9 37  1  0
 10 38  1  0
 10 39  1  0
 11 40  1  0
 11 41  1  0
 12 42  1  0
 12 43  1  0
 13 44  1  0
 13 45  1  0
 14 46  1  0
 14 47  1  0
 15 48  1  0
 15 49  1  0
 16 50  1  0
 16 51  1  0
 25 52  1  0
M  END
