
     RDKit          3D

 58 59  0  0  0  0  0  0  0  0999 V2000
    6.3708    2.5949    0.8799 C   0  0  0  0  0  0  0  0  0  0  0  0
   -2.9149    3.5200   -1.4929 C   0  0  0  0  0  0  0  0  0  0  0  0
   -3.6743    1.2729    0.7025 C   0  0  0  0  0  0  0  0  0  0  0  0
    5.3351    2.3232   -0.2002 C   0  0  0  0  0  0  0  0  0  0  0  0
   -3.8113    2.2920   -1.5456 C   0  0  0  0  0  0  0  0  0  0  0  0
    4.8434    0.8735   -0.2285 C   0  0  0  0  0  0  0  0  0  0  0  0
    4.0373    0.4841    1.0134 C   0  0  0  0  0  0  0  0  0  0  0  0
   -4.4680   -3.7842    0.9636 C   0  0  0  0  0  0  0  0  0  0  0  0
   -3.4347   -3.3809    1.8035 C   0  0  0  0  0  0  0  0  0  0  0  0
   -4.5878   -3.2199   -0.3017 C   0  0  0  0  0  0  0  0  0  0  0  0
    3.5591   -0.9740    0.9980 C   0  0  0  0  0  0  0  0  0  0  0  0
   -2.5247   -2.4059    1.3836 C   0  0  0  0  0  0  0  0  0  0  0  0
   -3.6793   -2.2461   -0.7226 C   0  0  0  0  0  0  0  0  0  0  0  0
   -0.8239    0.0127    0.7085 C   0  0  0  0  0  0  0  0  0  0  0  0
   -0.6343   -1.5287   -1.2911 C   0  0  0  0  0  0  0  0  0  0  0  0
    2.6099   -1.3454   -0.1527 C   0  0  0  0  0  0  0  0  0  0  0  0
    0.5631   -0.5901    0.9430 C   0  0  0  0  0  0  0  0  0  0  0  0
    0.6706   -0.7601   -1.5007 C   0  0  0  0  0  0  0  0  0  0  0  0
   -2.6387   -1.8034    0.1186 C   0  0  0  0  0  0  0  0  0  0  0  0
   -2.3572    0.3451   -1.2655 C   0  0  0  0  0  0  0  0  0  0  0  0
   -1.6366   -0.7395   -0.3875 C   0  0  0  0  0  0  0  0  0  0  0  0
   -3.3056    1.2047   -0.7045 N   0  0  0  0  0  0  0  0  0  0  0  0
    1.4072   -0.5047   -0.2526 N   0  0  0  0  0  0  0  0  0  0  0  0
   -2.0842    0.4419   -2.4694 O   0  0  0  0  0  0  0  0  0  0  0  0
    6.7568    3.6147    0.7811 H   0  0  0  0  0  0  0  0  0  0  0  0
    5.9419    2.5005    1.8816 H   0  0  0  0  0  0  0  0  0  0  0  0
    7.2157    1.9039    0.7974 H   0  0  0  0  0  0  0  0  0  0  0  0
   -1.8991    3.2831   -1.8254 H   0  0  0  0  0  0  0  0  0  0  0  0
   -3.3121    4.3078   -2.1404 H   0  0  0  0  0  0  0  0  0  0  0  0
   -2.8488    3.9171   -0.4750 H   0  0  0  0  0  0  0  0  0  0  0  0
   -3.0669    2.0421    1.1875 H   0  0  0  0  0  0  0  0  0  0  0  0
   -4.7321    1.5397    0.7877 H   0  0  0  0  0  0  0  0  0  0  0  0
   -3.5332    0.3282    1.2197 H   0  0  0  0  0  0  0  0  0  0  0  0
    5.7822    2.5557   -1.1743 H   0  0  0  0  0  0  0  0  0  0  0  0
    4.4854    3.0037   -0.0716 H   0  0  0  0  0  0  0  0  0  0  0  0
   -3.8914    1.9494   -2.5834 H   0  0  0  0  0  0  0  0  0  0  0  0
   -4.8267    2.5473   -1.2224 H   0  0  0  0  0  0  0  0  0  0  0  0
    5.6988    0.1969   -0.3434 H   0  0  0  0  0  0  0  0  0  0  0  0
    4.2206    0.7537   -1.1221 H   0  0  0  0  0  0  0  0  0  0  0  0
    3.1820    1.1604    1.1250 H   0  0  0  0  0  0  0  0  0  0  0  0
    4.6562    0.6159    1.9082 H   0  0  0  0  0  0  0  0  0  0  0  0
   -5.1723   -4.5445    1.2902 H   0  0  0  0  0  0  0  0  0  0  0  0
   -3.3304   -3.8312    2.7875 H   0  0  0  0  0  0  0  0  0  0  0  0
   -5.3845   -3.5405   -0.9680 H   0  0  0  0  0  0  0  0  0  0  0  0
    4.4357   -1.6323    0.9455 H   0  0  0  0  0  0  0  0  0  0  0  0
    3.0779   -1.1946    1.9586 H   0  0  0  0  0  0  0  0  0  0  0  0
   -1.7253   -2.1387    2.0681 H   0  0  0  0  0  0  0  0  0  0  0  0
   -3.7929   -1.8389   -1.7267 H   0  0  0  0  0  0  0  0  0  0  0  0
   -1.3568    0.0491    1.6645 H   0  0  0  0  0  0  0  0  0  0  0  0
   -0.6795    1.0636    0.4189 H   0  0  0  0  0  0  0  0  0  0  0  0
   -0.3910   -2.5043   -0.8453 H   0  0  0  0  0  0  0  0  0  0  0  0
   -1.0782   -1.7622   -2.2678 H   0  0  0  0  0  0  0  0  0  0  0  0
    3.1821   -1.2770   -1.0862 H   0  0  0  0  0  0  0  0  0  0  0  0
    2.3244   -2.4005   -0.0479 H   0  0  0  0  0  0  0  0  0  0  0  0
    1.0359   -0.0356    1.7616 H   0  0  0  0  0  0  0  0  0  0  0  0
    0.4595   -1.6291    1.2796 H   0  0  0  0  0  0  0  0  0  0  0  0
    1.2866   -1.2968   -2.2331 H   0  0  0  0  0  0  0  0  0  0  0  0
    0.4583    0.2115   -1.9617 H   0  0  0  0  0  0  0  0  0  0  0  0
  1  4  1  0
  2  5  1  0
  3 22  1  0
  4  6  1  0
  5 22  1  0
  6  7  1  0
  7 11  1  0
  8  9  2  0
  8 10  1  0
  9 12  1  0
 10 13  2  0
 11 16  1  0
 12 19  2  0
 13 19  1  0
 14 17  1  0
 14 21  1  0
 15 18  1  0
 15 21  1  0
 16 23  1  0
 17 23  1  0
 18 23  1  0
 19 21  1  0
 20 21  1  0
 20 22  1  0
 20 24  2  0
  1 25  1  0
  1 26  1  0
  1 27  1  0
  2 28  1  0
  2 29  1  0
  2 30  1  0
  3 31  1  0
  3 32  1  0
  3 33  1  0
  4 34  1  0
  4 35  1  0
  5 36  1  0
  5 37  1  0
  6 38  1  0
  6 39  1  0
  7 40  1  0
  7 41  1  0
  8 42  1  0
  9 43  1  0
 10 44  1  0
 11 45  1  0
 11 46  1  0
 12 47  1  0
 13 48  1  0
 14 49  1  0
 14 50  1  0
 15 51  1  0
 15 52  1  0
 16 53  1  0
 16 54  1  0
 17 55  1  0
 17 56  1  0
 18 57  1  0
 18 58  1  0
M  END
