
     RDKit          3D

 57 60  0  0  0  0  0  0  0  0999 V2000
   -5.0813    1.7080    0.4398 C   0  0  0  0  0  0  0  0  0  0  0  0
    2.7219   -1.1801   -1.5989 C   0  0  0  0  0  0  0  0  0  0  0  0
   -2.5571   -0.5327   -2.1873 C   0  0  0  0  0  0  0  0  0  0  0  0
    1.5798    0.0672    1.8436 C   0  0  0  0  0  0  0  0  0  0  0  0
    0.2043   -0.6039    1.7028 C   0  0  0  0  0  0  0  0  0  0  0  0
   -3.8013   -1.8793    0.6439 C   0  0  0  0  0  0  0  0  0  0  0  0
   -2.3669   -2.0467    1.1140 C   0  0  0  0  0  0  0  0  0  0  0  0
    4.1259    1.5081   -0.7963 C   0  0  0  0  0  0  0  0  0  0  0  0
   -0.2519    1.1236   -0.8065 C   0  0  0  0  0  0  0  0  0  0  0  0
    2.6481    1.2782   -1.0905 C   0  0  0  0  0  0  0  0  0  0  0  0
   -1.7362    1.0350   -0.4159 C   0  0  0  0  0  0  0  0  0  0  0  0
    4.0235   -0.0899    1.1315 C   0  0  0  0  0  0  0  0  0  0  0  0
   -4.2283    0.5862    0.9763 C   0  0  0  0  0  0  0  0  0  0  0  0
    2.5708   -0.4788    0.8097 C   0  0  0  0  0  0  0  0  0  0  0  0
    4.4061    1.3147    0.6876 C   0  0  0  0  0  0  0  0  0  0  0  0
   -0.0702   -1.1514    0.2852 C   0  0  0  0  0  0  0  0  0  0  0  0
   -3.8178   -0.4985   -0.0214 C   0  0  0  0  0  0  0  0  0  0  0  0
   -1.5448   -1.4868   -0.0479 C   0  0  0  0  0  0  0  0  0  0  0  0
    0.5282   -0.2139   -0.7829 C   0  0  0  0  0  0  0  0  0  0  0  0
    2.1109   -0.1128   -0.6458 C   0  0  0  0  0  0  0  0  0  0  0  0
   -2.3977   -0.3308   -0.6597 C   0  0  0  0  0  0  0  0  0  0  0  0
   -3.8956    0.5593    2.1608 O   0  0  0  0  0  0  0  0  0  0  0  0
    5.7903    1.5341    0.9415 O   0  0  0  0  0  0  0  0  0  0  0  0
   -5.1780    2.4909    1.1972 H   0  0  0  0  0  0  0  0  0  0  0  0
   -6.0742    1.3229    0.1950 H   0  0  0  0  0  0  0  0  0  0  0  0
   -4.6177    2.1398   -0.4497 H   0  0  0  0  0  0  0  0  0  0  0  0
    2.3300   -2.1793   -1.3779 H   0  0  0  0  0  0  0  0  0  0  0  0
    2.4814   -0.9566   -2.6447 H   0  0  0  0  0  0  0  0  0  0  0  0
    3.8116   -1.2355   -1.5181 H   0  0  0  0  0  0  0  0  0  0  0  0
   -1.6021   -0.5078   -2.7179 H   0  0  0  0  0  0  0  0  0  0  0  0
   -3.0296   -1.4959   -2.4130 H   0  0  0  0  0  0  0  0  0  0  0  0
   -3.1902    0.2521   -2.6177 H   0  0  0  0  0  0  0  0  0  0  0  0
    1.4770    1.1527    1.7317 H   0  0  0  0  0  0  0  0  0  0  0  0
    1.9478   -0.1000    2.8631 H   0  0  0  0  0  0  0  0  0  0  0  0
   -0.5612    0.1078    2.0269 H   0  0  0  0  0  0  0  0  0  0  0  0
    0.1543   -1.4426    2.4095 H   0  0  0  0  0  0  0  0  0  0  0  0
   -4.5131   -1.9753    1.4698 H   0  0  0  0  0  0  0  0  0  0  0  0
   -4.0400   -2.6523   -0.0970 H   0  0  0  0  0  0  0  0  0  0  0  0
   -2.2205   -1.4846    2.0405 H   0  0  0  0  0  0  0  0  0  0  0  0
   -2.1249   -3.0946    1.3171 H   0  0  0  0  0  0  0  0  0  0  0  0
    4.7574    0.8454   -1.3996 H   0  0  0  0  0  0  0  0  0  0  0  0
    4.4094    2.5259   -1.0921 H   0  0  0  0  0  0  0  0  0  0  0  0
   -0.1704    1.5560   -1.8119 H   0  0  0  0  0  0  0  0  0  0  0  0
    0.1876    1.8543   -0.1214 H   0  0  0  0  0  0  0  0  0  0  0  0
    2.4640    1.4278   -2.1615 H   0  0  0  0  0  0  0  0  0  0  0  0
    2.1204    2.0827   -0.5712 H   0  0  0  0  0  0  0  0  0  0  0  0
   -2.2835    1.8296   -0.9382 H   0  0  0  0  0  0  0  0  0  0  0  0
   -1.8006    1.2919    0.6472 H   0  0  0  0  0  0  0  0  0  0  0  0
    4.2246   -0.2045    2.2045 H   0  0  0  0  0  0  0  0  0  0  0  0
    4.6994   -0.8088    0.6482 H   0  0  0  0  0  0  0  0  0  0  0  0
    2.5459   -1.5734    0.9206 H   0  0  0  0  0  0  0  0  0  0  0  0
    3.8505    2.0555    1.2735 H   0  0  0  0  0  0  0  0  0  0  0  0
    0.4594   -2.1134    0.2233 H   0  0  0  0  0  0  0  0  0  0  0  0
   -4.6057   -0.5107   -0.7862 H   0  0  0  0  0  0  0  0  0  0  0  0
   -1.5022   -2.2887   -0.8018 H   0  0  0  0  0  0  0  0  0  0  0  0
    0.3355   -0.6804   -1.7582 H   0  0  0  0  0  0  0  0  0  0  0  0
    6.2972    0.8835    0.4263 H   0  0  0  0  0  0  0  0  0  0  0  0
  1 13  1  0
  2 20  1  0
  3 21  1  0
  4  5  1  0
  4 14  1  0
  5 16  1  0
  6  7  1  0
  6 17  1  0
  7 18  1  0
  8 10  1  0
  8 15  1  0
  9 11  1  0
  9 19  1  0
 10 20  1  0
 11 21  1  0
 12 14  1  0
 12 15  1  0
 13 17  1  0
 13 22  2  0
 14 20  1  0
 15 23  1  0
 16 18  1  0
 16 19  1  0
 17 21  1  0
 18 21  1  0
 19 20  1  0
  1 24  1  0
  1 25  1  0
  1 26  1  0
  2 27  1  0
  2 28  1  0
  2 29  1  0
  3 30  1  0
  3 31  1  0
  3 32  1  0
  4 33  1  0
  4 34  1  0
  5 35  1  0
  5 36  1  0
  6 37  1  0
  6 38  1  0
  7 39  1  0
  7 40  1  0
  8 41  1  0
  8 42  1  0
  9 43  1  0
  9 44  1  0
 10 45  1  0
 10 46  1  0
 11 47  1  0
 11 48  1  0
 12 49  1  0
 12 50  1  0
 14 51  1  0
 15 52  1  0
 16 53  1  0
 17 54  1  0
 18 55  1  0
 19 56  1  0
 23 57  1  0
M  END
