
     RDKit          3D

 49 52  0  0  0  0  0  0  0  0999 V2000
   -4.7699    0.1807    3.4244 C   0  0  0  0  0  0  0  0  0  0  0  0
   -3.5418    1.0308    3.1336 C   0  0  0  0  0  0  0  0  0  0  0  0
    1.5774   -3.4601   -2.0928 C   0  0  0  0  0  0  0  0  0  0  0  0
   -4.1548   -2.7172   -1.5243 C   0  0  0  0  0  0  0  0  0  0  0  0
    0.2015   -3.4190   -1.8485 C   0  0  0  0  0  0  0  0  0  0  0  0
    2.3624   -2.3365   -1.8436 C   0  0  0  0  0  0  0  0  0  0  0  0
   -2.8156   -2.8524   -1.8590 C   0  0  0  0  0  0  0  0  0  0  0  0
   -4.5079   -1.9234   -0.4359 C   0  0  0  0  0  0  0  0  0  0  0  0
    4.8462    3.5381   -2.2697 C   0  0  0  0  0  0  0  0  0  0  0  0
    5.7086    4.3543   -0.1738 C   0  0  0  0  0  0  0  0  0  0  0  0
    4.2136    2.4837   -1.5979 C   0  0  0  0  0  0  0  0  0  0  0  0
    5.0743    3.2980    0.4903 C   0  0  0  0  0  0  0  0  0  0  0  0
   -5.1061   -0.4359    2.0661 C   0  0  0  0  0  0  0  0  0  0  0  0
   -2.7698    0.1779    2.1297 C   0  0  0  0  0  0  0  0  0  0  0  0
    0.4013   -1.1332   -1.1261 C   0  0  0  0  0  0  0  0  0  0  0  0
   -0.4185   -2.2529   -1.3643 C   0  0  0  0  0  0  0  0  0  0  0  0
    5.5915    4.4690   -1.5545 C   0  0  0  0  0  0  0  0  0  0  0  0
    4.3144    2.3426   -0.2087 C   0  0  0  0  0  0  0  0  0  0  0  0
    1.7826   -1.1722   -1.3434 C   0  0  0  0  0  0  0  0  0  0  0  0
   -1.8678   -2.1861   -1.0921 C   0  0  0  0  0  0  0  0  0  0  0  0
   -3.5240   -1.2777    0.3054 C   0  0  0  0  0  0  0  0  0  0  0  0
    2.9511    0.2618    0.1038 C   0  0  0  0  0  0  0  0  0  0  0  0
    6.3686    5.7644   -2.3765 Cl  0  0  0  0  0  0  0  0  0  0  0  0
    3.7138    1.3061    0.5194 N   0  0  0  0  0  0  0  0  0  0  0  0
    2.5805   -0.0525   -1.0907 N   0  0  0  0  0  0  0  0  0  0  0  0
   -2.2221   -1.4128   -0.0329 N   0  0  0  0  0  0  0  0  0  0  0  0
   -3.8284   -0.4726    1.3707 N   0  0  0  0  0  0  0  0  0  0  0  0
    2.6067   -0.4698    1.1857 O   0  0  0  0  0  0  0  0  0  0  0  0
   -5.6009    0.7598    3.8379 H   0  0  0  0  0  0  0  0  0  0  0  0
   -4.5145   -0.6102    4.1415 H   0  0  0  0  0  0  0  0  0  0  0  0
   -3.8443    1.9777    2.6681 H   0  0  0  0  0  0  0  0  0  0  0  0
   -2.9580    1.2581    4.0299 H   0  0  0  0  0  0  0  0  0  0  0  0
    2.0365   -4.3689   -2.4736 H   0  0  0  0  0  0  0  0  0  0  0  0
   -4.9217   -3.2127   -2.1112 H   0  0  0  0  0  0  0  0  0  0  0  0
   -0.3813   -4.3197   -2.0293 H   0  0  0  0  0  0  0  0  0  0  0  0
    3.4316   -2.3646   -2.0366 H   0  0  0  0  0  0  0  0  0  0  0  0
   -2.5308   -3.4499   -2.7178 H   0  0  0  0  0  0  0  0  0  0  0  0
   -5.5566   -1.8048   -0.1907 H   0  0  0  0  0  0  0  0  0  0  0  0
    4.7479    3.6193   -3.3488 H   0  0  0  0  0  0  0  0  0  0  0  0
    6.2894    5.0771    0.3928 H   0  0  0  0  0  0  0  0  0  0  0  0
    3.6392    1.7787   -2.1928 H   0  0  0  0  0  0  0  0  0  0  0  0
    5.1816    3.2287    1.5709 H   0  0  0  0  0  0  0  0  0  0  0  0
   -5.5482   -1.4293    2.2037 H   0  0  0  0  0  0  0  0  0  0  0  0
   -5.8114    0.2003    1.5188 H   0  0  0  0  0  0  0  0  0  0  0  0
   -2.1571   -0.5659    2.6536 H   0  0  0  0  0  0  0  0  0  0  0  0
   -2.1242    0.8045    1.5035 H   0  0  0  0  0  0  0  0  0  0  0  0
   -0.0460   -0.2091   -0.7614 H   0  0  0  0  0  0  0  0  0  0  0  0
    3.8483    1.3283    1.5190 H   0  0  0  0  0  0  0  0  0  0  0  0
    2.0531   -1.2223    0.9280 H   0  0  0  0  0  0  0  0  0  0  0  0
  1  2  1  0
  1 13  1  0
  2 14  1  0
  3  5  2  0
  3  6  1  0
  4  7  2  0
  4  8  1  0
  5 16  1  0
  6 19  2  0
  7 20  1  0
  8 21  2  0
  9 11  2  0
  9 17  1  0
 10 12  1  0
 10 17  2  0
 11 18  1  0
 12 18  2  0
 13 27  1  0
 14 27  1  0
 15 16  2  0
 15 19  1  0
 16 20  1  0
 17 23  1  0
 18 24  1  0
 19 25  1  0
 20 26  2  0
 21 26  1  0
 21 27  1  0
 22 24  1  0
 22 25  2  3
 22 28  1  0
  1 29  1  0
  1 30  1  0
  2 31  1  0
  2 32  1  0
  3 33  1  0
  4 34  1  0
  5 35  1  0
  6 36  1  0
  7 37  1  0
  8 38  1  0
  9 39  1  0
 10 40  1  0
 11 41  1  0
 12 42  1  0
 13 43  1  0
 13 44  1  0
 14 45  1  0
 14 46  1  0
 15 47  1  0
 24 48  1  0
 28 49  1  0
M  END
