
     RDKit          3D

 51 54  0  0  0  0  0  0  0  0999 V2000
   -2.0282    2.7545   -3.6479 C   0  0  0  0  0  0  0  0  0  0  0  0
   -4.7489   -0.0194    2.2244 C   0  0  0  0  0  0  0  0  0  0  0  0
   -4.7442    0.0948    0.7015 C   0  0  0  0  0  0  0  0  0  0  0  0
   -3.5079    0.6080    2.8585 C   0  0  0  0  0  0  0  0  0  0  0  0
    3.3521   -4.1113    1.3943 C   0  0  0  0  0  0  0  0  0  0  0  0
    6.1030   -0.1184    1.6571 C   0  0  0  0  0  0  0  0  0  0  0  0
    4.5493   -3.4915    1.7550 C   0  0  0  0  0  0  0  0  0  0  0  0
    5.9414   -1.4787    1.8906 C   0  0  0  0  0  0  0  0  0  0  0  0
    2.3476   -3.3645    0.7931 C   0  0  0  0  0  0  0  0  0  0  0  0
   -0.2501    1.0115   -3.8278 C   0  0  0  0  0  0  0  0  0  0  0  0
    0.6529    0.0914   -3.2878 C   0  0  0  0  0  0  0  0  0  0  0  0
    5.0606    0.5653    1.0631 C   0  0  0  0  0  0  0  0  0  0  0  0
   -3.3282    0.0609    0.1429 C   0  0  0  0  0  0  0  0  0  0  0  0
   -2.9442    1.7239    1.9886 C   0  0  0  0  0  0  0  0  0  0  0  0
   -0.1044    0.6474   -1.0665 C   0  0  0  0  0  0  0  0  0  0  0  0
   -1.0970    1.7681   -3.0007 C   0  0  0  0  0  0  0  0  0  0  0  0
    4.7482   -2.1159    1.5229 C   0  0  0  0  0  0  0  0  0  0  0  0
    0.7335   -0.0960   -1.9043 C   0  0  0  0  0  0  0  0  0  0  0  0
    2.5654   -2.0051    0.5501 C   0  0  0  0  0  0  0  0  0  0  0  0
   -1.0284    1.5580   -1.6112 C   0  0  0  0  0  0  0  0  0  0  0  0
    3.7407   -1.3388    0.9138 C   0  0  0  0  0  0  0  0  0  0  0  0
    1.7189   -1.0862   -1.3867 C   0  0  0  0  0  0  0  0  0  0  0  0
    3.8960   -0.0112    0.6963 N   0  0  0  0  0  0  0  0  0  0  0  0
   -2.4990    1.1837    0.6729 N   0  0  0  0  0  0  0  0  0  0  0  0
    2.5232   -1.6622   -2.1054 O   0  0  0  0  0  0  0  0  0  0  0  0
   -1.2756    3.3954    0.2145 O   0  0  0  0  0  0  0  0  0  0  0  0
   -3.3342    2.7718   -1.1112 O   0  0  0  0  0  0  0  0  0  0  0  0
    1.5201   -1.2737   -0.0337 O   0  0  0  0  0  0  0  0  0  0  0  0
   -2.0949    2.4098   -0.4563 S   0  0  0  0  0  6  0  0  0  0  0  0
   -1.7459    2.9416   -4.6904 H   0  0  0  0  0  0  0  0  0  0  0  0
   -3.0521    2.3686   -3.6480 H   0  0  0  0  0  0  0  0  0  0  0  0
   -1.9873    3.7229   -3.1390 H   0  0  0  0  0  0  0  0  0  0  0  0
   -4.8049   -1.0738    2.5222 H   0  0  0  0  0  0  0  0  0  0  0  0
   -5.6553    0.4592    2.6139 H   0  0  0  0  0  0  0  0  0  0  0  0
   -5.2291    1.0347    0.4076 H   0  0  0  0  0  0  0  0  0  0  0  0
   -5.3433   -0.7153    0.2703 H   0  0  0  0  0  0  0  0  0  0  0  0
   -2.7434   -0.1679    2.9963 H   0  0  0  0  0  0  0  0  0  0  0  0
   -3.7539    0.9882    3.8562 H   0  0  0  0  0  0  0  0  0  0  0  0
    3.2082   -5.1729    1.5800 H   0  0  0  0  0  0  0  0  0  0  0  0
    7.0179    0.3942    1.9319 H   0  0  0  0  0  0  0  0  0  0  0  0
    5.3302   -4.0872    2.2230 H   0  0  0  0  0  0  0  0  0  0  0  0
    6.7474   -2.0378    2.3587 H   0  0  0  0  0  0  0  0  0  0  0  0
    1.4109   -3.8310    0.5039 H   0  0  0  0  0  0  0  0  0  0  0  0
   -0.2789    1.1395   -4.9092 H   0  0  0  0  0  0  0  0  0  0  0  0
    1.3019   -0.4731   -3.9561 H   0  0  0  0  0  0  0  0  0  0  0  0
    5.1332    1.6297    0.8579 H   0  0  0  0  0  0  0  0  0  0  0  0
   -3.3693    0.0790   -0.9510 H   0  0  0  0  0  0  0  0  0  0  0  0
   -2.8343   -0.8803    0.4158 H   0  0  0  0  0  0  0  0  0  0  0  0
   -2.0795    2.1679    2.4953 H   0  0  0  0  0  0  0  0  0  0  0  0
   -3.6978    2.5071    1.8461 H   0  0  0  0  0  0  0  0  0  0  0  0
   -0.0422    0.5347    0.0144 H   0  0  0  0  0  0  0  0  0  0  0  0
  1 16  1  0
  2  3  1  0
  2  4  1  0
  3 13  1  0
  4 14  1  0
  5  7  2  0
  5  9  1  0
  6  8  1  0
  6 12  2  0
  7 17  1  0
  8 17  2  0
  9 19  2  0
 10 11  2  0
 10 16  1  0
 11 18  1  0
 12 23  1  0
 13 24  1  0
 14 24  1  0
 15 18  2  0
 15 20  1  0
 16 20  2  0
 17 21  1  0
 18 22  1  0
 19 21  1  0
 19 28  1  0
 20 29  1  0
 21 23  2  0
 22 25  2  0
 22 28  1  0
 24 29  1  0
 26 29  2  0
 27 29  2  0
  1 30  1  0
  1 31  1  0
  1 32  1  0
  2 33  1  0
  2 34  1  0
  3 35  1  0
  3 36  1  0
  4 37  1  0
  4 38  1  0
  5 39  1  0
  6 40  1  0
  7 41  1  0
  8 42  1  0
  9 43  1  0
 10 44  1  0
 11 45  1  0
 12 46  1  0
 13 47  1  0
 13 48  1  0
 14 49  1  0
 14 50  1  0
 15 51  1  0
M  END
