
     RDKit          3D

 53 54  0  0  0  0  0  0  0  0999 V2000
    8.0305    0.5519    0.3436 C   0  0  0  0  0  0  0  0  0  0  0  0
   -3.3230    1.9821   -0.0347 C   0  0  0  0  0  0  0  0  0  0  0  0
   -4.3288    1.7807   -2.2760 C   0  0  0  0  0  0  0  0  0  0  0  0
   -4.7693   -1.2681    2.7291 C   0  0  0  0  0  0  0  0  0  0  0  0
    6.5611    0.1728    0.4497 C   0  0  0  0  0  0  0  0  0  0  0  0
    5.8304    0.3993   -0.8743 C   0  0  0  0  0  0  0  0  0  0  0  0
    4.3741   -0.0737   -0.8533 C   0  0  0  0  0  0  0  0  0  0  0  0
    3.4886    0.7328    0.1004 C   0  0  0  0  0  0  0  0  0  0  0  0
   -5.1521   -1.1508    0.2112 C   0  0  0  0  0  0  0  0  0  0  0  0
   -4.4889   -1.1734   -1.1695 C   0  0  0  0  0  0  0  0  0  0  0  0
   -2.8411   -1.0577    1.1639 C   0  0  0  0  0  0  0  0  0  0  0  0
    1.5561   -0.7500    0.7600 C   0  0  0  0  0  0  0  0  0  0  0  0
    1.1755    0.9415   -0.8908 C   0  0  0  0  0  0  0  0  0  0  0  0
   -3.6103    1.1936   -1.0858 C   0  0  0  0  0  0  0  0  0  0  0  0
   -4.1709   -1.1608    1.3568 C   0  0  0  0  0  0  0  0  0  0  0  0
    2.0428    0.3144    0.0042 C   0  0  0  0  0  0  0  0  0  0  0  0
   -3.2128   -0.2948   -1.2235 C   0  0  0  0  0  0  0  0  0  0  0  0
   -2.1822   -0.9354   -0.2152 C   0  0  0  0  0  0  0  0  0  0  0  0
    0.2146   -1.1392    0.6479 C   0  0  0  0  0  0  0  0  0  0  0  0
   -0.1671    0.5412   -0.9943 C   0  0  0  0  0  0  0  0  0  0  0  0
   -0.7124   -0.4673   -0.1841 C   0  0  0  0  0  0  0  0  0  0  0  0
   -0.1881   -2.2471    1.3513 O   0  0  0  0  0  0  0  0  0  0  0  0
   -0.9077    1.1350   -1.9748 O   0  0  0  0  0  0  0  0  0  0  0  0
    8.5379   -0.0516   -0.4158 H   0  0  0  0  0  0  0  0  0  0  0  0
    8.1447    1.6075    0.0772 H   0  0  0  0  0  0  0  0  0  0  0  0
    8.5345    0.3864    1.3009 H   0  0  0  0  0  0  0  0  0  0  0  0
   -3.6181    3.0262   -0.0102 H   0  0  0  0  0  0  0  0  0  0  0  0
   -2.7823    1.6203    0.8321 H   0  0  0  0  0  0  0  0  0  0  0  0
   -5.3277    1.3480   -2.3812 H   0  0  0  0  0  0  0  0  0  0  0  0
   -4.4501    2.8660   -2.1897 H   0  0  0  0  0  0  0  0  0  0  0  0
   -3.7645    1.5894   -3.1946 H   0  0  0  0  0  0  0  0  0  0  0  0
   -4.0066   -1.2546    3.5146 H   0  0  0  0  0  0  0  0  0  0  0  0
   -5.4511   -0.4312    2.9119 H   0  0  0  0  0  0  0  0  0  0  0  0
   -5.3311   -2.2028    2.8260 H   0  0  0  0  0  0  0  0  0  0  0  0
    6.1028    0.7699    1.2452 H   0  0  0  0  0  0  0  0  0  0  0  0
    6.4821   -0.8800    0.7441 H   0  0  0  0  0  0  0  0  0  0  0  0
    5.8683    1.4622   -1.1422 H   0  0  0  0  0  0  0  0  0  0  0  0
    6.3546   -0.1450   -1.6698 H   0  0  0  0  0  0  0  0  0  0  0  0
    3.9760    0.0054   -1.8733 H   0  0  0  0  0  0  0  0  0  0  0  0
    4.3377   -1.1386   -0.5907 H   0  0  0  0  0  0  0  0  0  0  0  0
    3.5728    1.8043   -0.1206 H   0  0  0  0  0  0  0  0  0  0  0  0
    3.8225    0.6102    1.1375 H   0  0  0  0  0  0  0  0  0  0  0  0
   -5.7789   -0.2545    0.2970 H   0  0  0  0  0  0  0  0  0  0  0  0
   -5.8228   -2.0149    0.2908 H   0  0  0  0  0  0  0  0  0  0  0  0
   -5.2177   -0.8749   -1.9315 H   0  0  0  0  0  0  0  0  0  0  0  0
   -4.2182   -2.2094   -1.4163 H   0  0  0  0  0  0  0  0  0  0  0  0
   -2.1890   -1.0624    2.0325 H   0  0  0  0  0  0  0  0  0  0  0  0
    2.2306   -1.2819    1.4253 H   0  0  0  0  0  0  0  0  0  0  0  0
    1.5601    1.7288   -1.5345 H   0  0  0  0  0  0  0  0  0  0  0  0
   -2.7901   -0.4226   -2.2299 H   0  0  0  0  0  0  0  0  0  0  0  0
   -2.0726   -1.9773   -0.5619 H   0  0  0  0  0  0  0  0  0  0  0  0
    0.5731   -2.6267    1.8178 H   0  0  0  0  0  0  0  0  0  0  0  0
   -0.4958    1.9770   -2.2237 H   0  0  0  0  0  0  0  0  0  0  0  0
  1  5  1  0
  2 14  2  3
  3 14  1  0
  4 15  1  0
  5  6  1  0
  6  7  1  0
  7  8  1  0
  8 16  1  0
  9 10  1  0
  9 15  1  0
 10 17  1  0
 11 15  2  0
 11 18  1  0
 12 16  2  0
 12 19  1  0
 13 16  1  0
 13 20  2  0
 14 17  1  0
 17 18  1  0
 18 21  1  0
 19 21  2  0
 19 22  1  0
 20 21  1  0
 20 23  1  0
  1 24  1  0
  1 25  1  0
  1 26  1  0
  2 27  1  0
  2 28  1  0
  3 29  1  0
  3 30  1  0
  3 31  1  0
  4 32  1  0
  4 33  1  0
  4 34  1  0
  5 35  1  0
  5 36  1  0
  6 37  1  0
  6 38  1  0
  7 39  1  0
  7 40  1  0
  8 41  1  0
  8 42  1  0
  9 43  1  0
  9 44  1  0
 10 45  1  0
 10 46  1  0
 11 47  1  0
 12 48  1  0
 13 49  1  0
 17 50  1  0
 18 51  1  0
 22 52  1  0
 23 53  1  0
M  END
