
     RDKit          3D

 52 54  0  0  0  0  0  0  0  0999 V2000
   -3.9384    1.8024   -1.3944 C   0  0  0  0  0  0  0  0  0  0  0  0
   -4.0690   -0.5421   -2.2578 C   0  0  0  0  0  0  0  0  0  0  0  0
   -5.7530    0.2680   -0.6098 C   0  0  0  0  0  0  0  0  0  0  0  0
    1.1622    1.0559   -3.3595 C   0  0  0  0  0  0  0  0  0  0  0  0
    2.5218    0.7723   -3.3564 C   0  0  0  0  0  0  0  0  0  0  0  0
    0.3430    0.6048   -2.3203 C   0  0  0  0  0  0  0  0  0  0  0  0
    3.0971    0.0351   -2.3182 C   0  0  0  0  0  0  0  0  0  0  0  0
    4.6445   -1.4562    2.6460 C   0  0  0  0  0  0  0  0  0  0  0  0
    4.8687    0.4667    1.1927 C   0  0  0  0  0  0  0  0  0  0  0  0
    5.2126   -0.7282    3.6930 C   0  0  0  0  0  0  0  0  0  0  0  0
    5.4353    1.1923    2.2418 C   0  0  0  0  0  0  0  0  0  0  0  0
    3.8558   -1.6588    0.2513 C   0  0  0  0  0  0  0  0  0  0  0  0
    1.4000   -1.3539    0.5800 C   0  0  0  0  0  0  0  0  0  0  0  0
    4.4657   -0.8662    1.3834 C   0  0  0  0  0  0  0  0  0  0  0  0
    5.6025    0.5883    3.4813 C   0  0  0  0  0  0  0  0  0  0  0  0
    0.8912   -0.1452   -1.2552 C   0  0  0  0  0  0  0  0  0  0  0  0
    0.3404   -0.7446   -0.0710 C   0  0  0  0  0  0  0  0  0  0  0  0
    2.2666   -0.4139   -1.2757 C   0  0  0  0  0  0  0  0  0  0  0  0
   -3.3658   -0.1819    0.1500 C   0  0  0  0  0  0  0  0  0  0  0  0
   -3.5407    0.6024    1.4427 C   0  0  0  0  0  0  0  0  0  0  0  0
   -1.0338   -0.7505    0.4021 C   0  0  0  0  0  0  0  0  0  0  0  0
   -4.2653    0.3471   -1.0099 C   0  0  0  0  0  0  0  0  0  0  0  0
    6.1476    1.2846    4.4873 F   0  0  0  0  0  0  0  0  0  0  0  0
   -4.2793    0.2511    2.4343 N   0  0  0  0  0  0  0  0  0  0  0  0
   -1.9579   -0.1664   -0.2631 N   0  0  0  0  0  0  0  0  0  0  0  0
    2.5488   -1.1394   -0.1366 N   0  0  0  0  0  0  0  0  0  0  0  0
   -2.8379    1.7218    1.5899 O   0  0  0  0  0  0  0  0  0  0  0  0
   -1.2209   -1.4235    1.5591 O   0  0  0  0  0  0  0  0  0  0  0  0
   -4.5412    2.1251   -2.2514 H   0  0  0  0  0  0  0  0  0  0  0  0
   -2.8865    1.9216   -1.6727 H   0  0  0  0  0  0  0  0  0  0  0  0
   -4.1515    2.4956   -0.5744 H   0  0  0  0  0  0  0  0  0  0  0  0
   -4.2797   -1.5931   -2.0302 H   0  0  0  0  0  0  0  0  0  0  0  0
   -3.0457   -0.4803   -2.6432 H   0  0  0  0  0  0  0  0  0  0  0  0
   -4.7399   -0.2384   -3.0698 H   0  0  0  0  0  0  0  0  0  0  0  0
   -6.0270   -0.7484   -0.3056 H   0  0  0  0  0  0  0  0  0  0  0  0
   -6.4026    0.5496   -1.4468 H   0  0  0  0  0  0  0  0  0  0  0  0
   -5.9865    0.9434    0.2199 H   0  0  0  0  0  0  0  0  0  0  0  0
    0.7278    1.6324   -4.1720 H   0  0  0  0  0  0  0  0  0  0  0  0
    3.1472    1.1299   -4.1709 H   0  0  0  0  0  0  0  0  0  0  0  0
   -0.7184    0.8354   -2.3355 H   0  0  0  0  0  0  0  0  0  0  0  0
    4.1618   -0.1734   -2.3303 H   0  0  0  0  0  0  0  0  0  0  0  0
    4.3388   -2.4850    2.8248 H   0  0  0  0  0  0  0  0  0  0  0  0
    4.7334    0.9527    0.2283 H   0  0  0  0  0  0  0  0  0  0  0  0
    5.3508   -1.1775    4.6712 H   0  0  0  0  0  0  0  0  0  0  0  0
    5.7418    2.2238    2.1005 H   0  0  0  0  0  0  0  0  0  0  0  0
    4.5222   -1.6547   -0.6168 H   0  0  0  0  0  0  0  0  0  0  0  0
    3.7081   -2.7087    0.5326 H   0  0  0  0  0  0  0  0  0  0  0  0
    1.4190   -1.9128    1.5070 H   0  0  0  0  0  0  0  0  0  0  0  0
   -3.6577   -1.2218    0.3534 H   0  0  0  0  0  0  0  0  0  0  0  0
   -4.7924   -0.6105    2.2169 H   0  0  0  0  0  0  0  0  0  0  0  0
   -3.0514    2.0888    2.4636 H   0  0  0  0  0  0  0  0  0  0  0  0
   -2.1118   -1.3157    1.9102 H   0  0  0  0  0  0  0  0  0  0  0  0
  1 22  1  0
  2 22  1  0
  3 22  1  0
  4  5  2  0
  4  6  1  0
  5  7  1  0
  6 16  2  0
  7 18  2  0
  8 10  2  0
  8 14  1  0
  9 11  1  0
  9 14  2  0
 10 15  1  0
 11 15  2  0
 12 14  1  0
 12 26  1  0
 13 17  2  0
 13 26  1  0
 15 23  1  0
 16 17  1  0
 16 18  1  0
 17 21  1  0
 18 26  1  0
 19 20  1  0
 19 22  1  0
 19 25  1  0
 20 24  2  3
 20 27  1  0
 21 25  2  3
 21 28  1  0
  1 29  1  0
  1 30  1  0
  1 31  1  0
  2 32  1  0
  2 33  1  0
  2 34  1  0
  3 35  1  0
  3 36  1  0
  3 37  1  0
  4 38  1  0
  5 39  1  0
  6 40  1  0
  7 41  1  0
  8 42  1  0
  9 43  1  0
 10 44  1  0
 11 45  1  0
 12 46  1  0
 12 47  1  0
 13 48  1  0
 19 49  1  0
 24 50  1  0
 27 51  1  0
 28 52  1  0
M  END
