
     RDKit          3D

 53 56  0  0  0  0  0  0  0  0999 V2000
    5.3384    0.5691   -2.9007 C   0  0  0  0  0  0  0  0  0  0  0  0
   -6.6907    0.6267    0.4705 C   0  0  0  0  0  0  0  0  0  0  0  0
   -3.4509    1.8307   -3.6140 C   0  0  0  0  0  0  0  0  0  0  0  0
    5.2674    1.8612   -2.1001 C   0  0  0  0  0  0  0  0  0  0  0  0
    3.8363    2.2935   -1.7728 C   0  0  0  0  0  0  0  0  0  0  0  0
   -0.8139   -2.0392    2.7959 C   0  0  0  0  0  0  0  0  0  0  0  0
    0.2650   -3.0066    2.3320 C   0  0  0  0  0  0  0  0  0  0  0  0
   -2.5972   -0.6271    1.7567 C   0  0  0  0  0  0  0  0  0  0  0  0
    2.3060    0.3490   -0.9894 C   0  0  0  0  0  0  0  0  0  0  0  0
   -1.0393   -0.1084   -0.5026 C   0  0  0  0  0  0  0  0  0  0  0  0
    2.2003   -0.1290    2.7096 C   0  0  0  0  0  0  0  0  0  0  0  0
   -5.3875   -0.1039    0.3449 C   0  0  0  0  0  0  0  0  0  0  0  0
   -2.7856    0.8010   -2.7503 C   0  0  0  0  0  0  0  0  0  0  0  0
   -1.3013   -1.1658    1.6664 C   0  0  0  0  0  0  0  0  0  0  0  0
    3.1676    1.4074   -0.7618 C   0  0  0  0  0  0  0  0  0  0  0  0
   -0.4856   -0.8721    0.5485 C   0  0  0  0  0  0  0  0  0  0  0  0
    1.8485   -0.2466    0.2248 C   0  0  0  0  0  0  0  0  0  0  0  0
    1.4293   -2.2681    1.6706 C   0  0  0  0  0  0  0  0  0  0  0  0
   -3.1088    0.1320    0.7095 C   0  0  0  0  0  0  0  0  0  0  0  0
   -2.3434    0.3803   -0.4248 C   0  0  0  0  0  0  0  0  0  0  0  0
    2.4276    0.3562    1.3206 C   0  0  0  0  0  0  0  0  0  0  0  0
    0.9344   -1.4312    0.4269 C   0  0  0  0  0  0  0  0  0  0  0  0
    2.2566   -1.6031    2.7307 N   0  0  0  0  0  0  0  0  0  0  0  0
   -5.2755   -1.2202   -0.1466 O   0  0  0  0  0  0  0  0  0  0  0  0
   -2.2408   -0.2065   -3.1777 O   0  0  0  0  0  0  0  0  0  0  0  0
   -4.3744    0.7026    0.8424 O   0  0  0  0  0  0  0  0  0  0  0  0
   -2.8957    1.2018   -1.4214 O   0  0  0  0  0  0  0  0  0  0  0  0
    3.4275    1.6596    0.9158 S   0  0  0  0  0  0  0  0  0  0  0  0
    4.9674   -0.2821   -2.3241 H   0  0  0  0  0  0  0  0  0  0  0  0
    4.7518    0.6475   -3.8213 H   0  0  0  0  0  0  0  0  0  0  0  0
    6.3776    0.3593   -3.1762 H   0  0  0  0  0  0  0  0  0  0  0  0
   -6.8055    1.0223    1.4824 H   0  0  0  0  0  0  0  0  0  0  0  0
   -6.7321    1.4312   -0.2656 H   0  0  0  0  0  0  0  0  0  0  0  0
   -7.5162   -0.0676    0.2825 H   0  0  0  0  0  0  0  0  0  0  0  0
   -3.4026    1.5119   -4.6590 H   0  0  0  0  0  0  0  0  0  0  0  0
   -4.5028    1.9331   -3.3267 H   0  0  0  0  0  0  0  0  0  0  0  0
   -2.9315    2.7876   -3.5156 H   0  0  0  0  0  0  0  0  0  0  0  0
    5.8596    1.7571   -1.1824 H   0  0  0  0  0  0  0  0  0  0  0  0
    5.7398    2.6533   -2.6947 H   0  0  0  0  0  0  0  0  0  0  0  0
    3.8513    3.3259   -1.3981 H   0  0  0  0  0  0  0  0  0  0  0  0
    3.2363    2.3187   -2.6906 H   0  0  0  0  0  0  0  0  0  0  0  0
   -0.4490   -1.4031    3.6105 H   0  0  0  0  0  0  0  0  0  0  0  0
   -1.6504   -2.6264    3.1947 H   0  0  0  0  0  0  0  0  0  0  0  0
   -0.1618   -3.7188    1.6130 H   0  0  0  0  0  0  0  0  0  0  0  0
    0.6175   -3.6044    3.1818 H   0  0  0  0  0  0  0  0  0  0  0  0
   -3.2103   -0.8169    2.6339 H   0  0  0  0  0  0  0  0  0  0  0  0
    2.0174    0.0225   -1.9816 H   0  0  0  0  0  0  0  0  0  0  0  0
   -0.4470    0.1042   -1.3873 H   0  0  0  0  0  0  0  0  0  0  0  0
    2.9578    0.2573    3.4002 H   0  0  0  0  0  0  0  0  0  0  0  0
    1.2290    0.2186    3.0770 H   0  0  0  0  0  0  0  0  0  0  0  0
    2.0947   -3.0422    1.2612 H   0  0  0  0  0  0  0  0  0  0  0  0
    0.9633   -2.0834   -0.4569 H   0  0  0  0  0  0  0  0  0  0  0  0
    3.2314   -1.8487    2.5484 H   0  0  0  0  0  0  0  0  0  0  0  0
  1  4  1  0
  2 12  1  0
  3 13  1  0
  4  5  1  0
  5 15  1  0
  6  7  1  0
  6 14  1  0
  7 18  1  0
  8 14  2  0
  8 19  1  0
  9 15  2  0
  9 17  1  0
 10 16  2  0
 10 20  1  0
 11 21  1  0
 11 23  1  0
 12 24  2  0
 12 26  1  0
 13 25  2  0
 13 27  1  0
 14 16  1  0
 15 28  1  0
 16 22  1  0
 17 21  2  0
 17 22  1  0
 18 22  1  0
 18 23  1  0
 19 20  2  0
 19 26  1  0
 20 27  1  0
 21 28  1  0
  1 29  1  0
  1 30  1  0
  1 31  1  0
  2 32  1  0
  2 33  1  0
  2 34  1  0
  3 35  1  0
  3 36  1  0
  3 37  1  0
  4 38  1  0
  4 39  1  0
  5 40  1  0
  5 41  1  0
  6 42  1  0
  6 43  1  0
  7 44  1  0
  7 45  1  0
  8 46  1  0
  9 47  1  0
 10 48  1  0
 11 49  1  0
 11 50  1  0
 18 51  1  0
 22 52  1  0
 23 53  1  0
M  END
