
     RDKit          3D

 55 59  0  0  0  0  0  0  0  0999 V2000
    2.2396    3.4619    0.9908 C   0  0  0  0  0  0  0  0  0  0  0  0
    3.5438    3.2194    1.4121 C   0  0  0  0  0  0  0  0  0  0  0  0
    5.7410   -1.3122   -1.2572 C   0  0  0  0  0  0  0  0  0  0  0  0
    5.1775   -2.0821   -0.0616 C   0  0  0  0  0  0  0  0  0  0  0  0
    1.4233    2.4115    0.5573 C   0  0  0  0  0  0  0  0  0  0  0  0
    4.0751    1.9263    1.4052 C   0  0  0  0  0  0  0  0  0  0  0  0
    4.6924   -0.7767   -2.2184 C   0  0  0  0  0  0  0  0  0  0  0  0
    4.6708   -1.2054    1.0892 C   0  0  0  0  0  0  0  0  0  0  0  0
   -5.0618   -0.6631    1.2081 C   0  0  0  0  0  0  0  0  0  0  0  0
   -5.0384    0.9366   -0.7226 C   0  0  0  0  0  0  0  0  0  0  0  0
   -4.6551   -1.5100   -1.1165 C   0  0  0  0  0  0  0  0  0  0  0  0
   -3.1666    0.9521    0.9403 C   0  0  0  0  0  0  0  0  0  0  0  0
   -2.7869   -1.4985    0.5585 C   0  0  0  0  0  0  0  0  0  0  0  0
   -2.7626    0.1141   -1.3851 C   0  0  0  0  0  0  0  0  0  0  0  0
   -4.6803    0.7567    0.7605 C   0  0  0  0  0  0  0  0  0  0  0  0
   -4.3006   -1.7010    0.3681 C   0  0  0  0  0  0  0  0  0  0  0  0
   -4.2763   -0.0908   -1.5735 C   0  0  0  0  0  0  0  0  0  0  0  0
    1.9306    1.0948    0.5573 C   0  0  0  0  0  0  0  0  0  0  0  0
    3.2465    0.8822    0.9668 C   0  0  0  0  0  0  0  0  0  0  0  0
    1.4320   -0.1989    0.2031 C   0  0  0  0  0  0  0  0  0  0  0  0
    0.0849   -0.5559   -0.2798 C   0  0  0  0  0  0  0  0  0  0  0  0
   -2.3659   -0.0807    0.1005 C   0  0  0  0  0  0  0  0  0  0  0  0
    5.3430   -0.2424   -3.2906 F   0  0  0  0  0  0  0  0  0  0  0  0
   -0.9377    0.1583    0.3242 N   0  0  0  0  0  0  0  0  0  0  0  0
    2.3817   -1.1376    0.3654 N   0  0  0  0  0  0  0  0  0  0  0  0
    3.4554   -0.4655    0.8127 N   0  0  0  0  0  0  0  0  0  0  0  0
   -0.1071   -1.4288   -1.1205 O   0  0  0  0  0  0  0  0  0  0  0  0
    1.8532    4.4788    0.9900 H   0  0  0  0  0  0  0  0  0  0  0  0
    4.1643    4.0504    1.7419 H   0  0  0  0  0  0  0  0  0  0  0  0
    6.3961   -1.9850   -1.8253 H   0  0  0  0  0  0  0  0  0  0  0  0
    6.3852   -0.4915   -0.9202 H   0  0  0  0  0  0  0  0  0  0  0  0
    5.9898   -2.7002    0.3423 H   0  0  0  0  0  0  0  0  0  0  0  0
    4.4004   -2.7797   -0.3960 H   0  0  0  0  0  0  0  0  0  0  0  0
    0.4155    2.6240    0.2107 H   0  0  0  0  0  0  0  0  0  0  0  0
    5.0982    1.7542    1.7235 H   0  0  0  0  0  0  0  0  0  0  0  0
    4.0909    0.0200   -1.7801 H   0  0  0  0  0  0  0  0  0  0  0  0
    4.0347   -1.5695   -2.5855 H   0  0  0  0  0  0  0  0  0  0  0  0
    4.4450   -1.8370    1.9570 H   0  0  0  0  0  0  0  0  0  0  0  0
    5.4519   -0.5031    1.3950 H   0  0  0  0  0  0  0  0  0  0  0  0
   -4.8278   -0.7968    2.2714 H   0  0  0  0  0  0  0  0  0  0  0  0
   -6.1430   -0.8126    1.0989 H   0  0  0  0  0  0  0  0  0  0  0  0
   -6.1191    0.8140   -0.8651 H   0  0  0  0  0  0  0  0  0  0  0  0
   -4.7876    1.9535   -1.0486 H   0  0  0  0  0  0  0  0  0  0  0  0
   -4.1275   -2.2536   -1.7264 H   0  0  0  0  0  0  0  0  0  0  0  0
   -5.7285   -1.6774   -1.2687 H   0  0  0  0  0  0  0  0  0  0  0  0
   -2.8866    1.9734    0.6486 H   0  0  0  0  0  0  0  0  0  0  0  0
   -2.9075    0.8564    2.0034 H   0  0  0  0  0  0  0  0  0  0  0  0
   -2.2484   -2.2681   -0.0072 H   0  0  0  0  0  0  0  0  0  0  0  0
   -2.5197   -1.6495    1.6127 H   0  0  0  0  0  0  0  0  0  0  0  0
   -2.4759    1.1186   -1.7233 H   0  0  0  0  0  0  0  0  0  0  0  0
   -2.2291   -0.5906   -2.0328 H   0  0  0  0  0  0  0  0  0  0  0  0
   -5.2229    1.4929    1.3638 H   0  0  0  0  0  0  0  0  0  0  0  0
   -4.5803   -2.7111    0.6878 H   0  0  0  0  0  0  0  0  0  0  0  0
   -4.5372    0.0391   -2.6298 H   0  0  0  0  0  0  0  0  0  0  0  0
   -0.6820    0.6559    1.1673 H   0  0  0  0  0  0  0  0  0  0  0  0
  1  2  2  0
  1  5  1  0
  2  6  1  0
  3  4  1  0
  3  7  1  0
  4  8  1  0
  5 18  2  0
  6 19  2  0
  7 23  1  0
  8 26  1  0
  9 15  1  0
  9 16  1  0
 10 15  1  0
 10 17  1  0
 11 16  1  0
 11 17  1  0
 12 15  1  0
 12 22  1  0
 13 16  1  0
 13 22  1  0
 14 17  1  0
 14 22  1  0
 18 19  1  0
 18 20  1  0
 19 26  1  0
 20 21  1  0
 20 25  2  0
 21 24  1  0
 21 27  2  0
 22 24  1  0
 25 26  1  0
  1 28  1  0
  2 29  1  0
  3 30  1  0
  3 31  1  0
  4 32  1  0
  4 33  1  0
  5 34  1  0
  6 35  1  0
  7 36  1  0
  7 37  1  0
  8 38  1  0
  8 39  1  0
  9 40  1  0
  9 41  1  0
 10 42  1  0
 10 43  1  0
 11 44  1  0
 11 45  1  0
 12 46  1  0
 12 47  1  0
 13 48  1  0
 13 49  1  0
 14 50  1  0
 14 51  1  0
 15 52  1  0
 16 53  1  0
 17 54  1  0
 24 55  1  0
M  END
