
     RDKit          3D

 55 57  0  0  0  0  0  0  0  0999 V2000
   -0.8460   -0.0377   -2.0067 C   0  0  0  0  0  0  0  0  0  0  0  0
    7.1936    2.2150   -1.7574 C   0  0  0  0  0  0  0  0  0  0  0  0
   -5.3722    3.0615    2.0294 C   0  0  0  0  0  0  0  0  0  0  0  0
   -6.2132   -0.3225   -2.1596 C   0  0  0  0  0  0  0  0  0  0  0  0
   -2.7074   -0.1606    1.4521 C   0  0  0  0  0  0  0  0  0  0  0  0
    6.3802    0.6192    0.4393 C   0  0  0  0  0  0  0  0  0  0  0  0
    5.9351   -0.1729    1.5065 C   0  0  0  0  0  0  0  0  0  0  0  0
   -3.5817    0.9065    1.6757 C   0  0  0  0  0  0  0  0  0  0  0  0
   -1.9643   -2.1976    0.1604 C   0  0  0  0  0  0  0  0  0  0  0  0
    1.0910   -0.3847    0.2134 C   0  0  0  0  0  0  0  0  0  0  0  0
   -1.3492   -2.3248   -1.2486 C   0  0  0  0  0  0  0  0  0  0  0  0
    0.9282   -1.3807   -0.9498 C   0  0  0  0  0  0  0  0  0  0  0  0
   -4.0286   -0.8484   -0.4430 C   0  0  0  0  0  0  0  0  0  0  0  0
    4.1409    0.7267   -0.4716 C   0  0  0  0  0  0  0  0  0  0  0  0
    2.5520   -1.3071    2.1187 C   0  0  0  0  0  0  0  0  0  0  0  0
   -2.9098   -1.0396    0.3832 C   0  0  0  0  0  0  0  0  0  0  0  0
    2.3794   -0.5856    0.9530 C   0  0  0  0  0  0  0  0  0  0  0  0
    5.4986    1.0679   -0.5432 C   0  0  0  0  0  0  0  0  0  0  0  0
    3.6649   -0.0687    0.5911 C   0  0  0  0  0  0  0  0  0  0  0  0
    4.5757   -0.4992    1.5543 C   0  0  0  0  0  0  0  0  0  0  0  0
   -4.6821    1.1086    0.8381 C   0  0  0  0  0  0  0  0  0  0  0  0
   -4.9087    0.2217   -0.2319 C   0  0  0  0  0  0  0  0  0  0  0  0
    3.8739   -1.2480    2.4691 N   0  0  0  0  0  0  0  0  0  0  0  0
   -0.3372   -1.3629   -1.6950 N   0  0  0  0  0  0  0  0  0  0  0  0
    5.8281    1.8434   -1.6233 O   0  0  0  0  0  0  0  0  0  0  0  0
   -5.5893    2.1296    0.9803 O   0  0  0  0  0  0  0  0  0  0  0  0
   -6.0154    0.4787   -1.0041 O   0  0  0  0  0  0  0  0  0  0  0  0
   -1.1565    0.5230   -1.1211 H   0  0  0  0  0  0  0  0  0  0  0  0
   -1.7006   -0.0999   -2.6895 H   0  0  0  0  0  0  0  0  0  0  0  0
   -0.0806    0.5503   -2.5259 H   0  0  0  0  0  0  0  0  0  0  0  0
    7.8328    1.3342   -1.8790 H   0  0  0  0  0  0  0  0  0  0  0  0
    7.5207    2.8285   -0.9114 H   0  0  0  0  0  0  0  0  0  0  0  0
    7.2875    2.8212   -2.6634 H   0  0  0  0  0  0  0  0  0  0  0  0
   -5.4288    2.5743    3.0083 H   0  0  0  0  0  0  0  0  0  0  0  0
   -4.4197    3.5866    1.9019 H   0  0  0  0  0  0  0  0  0  0  0  0
   -6.1709    3.8081    1.9841 H   0  0  0  0  0  0  0  0  0  0  0  0
   -7.0955    0.0581   -2.6832 H   0  0  0  0  0  0  0  0  0  0  0  0
   -5.3628   -0.2483   -2.8455 H   0  0  0  0  0  0  0  0  0  0  0  0
   -6.4134   -1.3636   -1.8866 H   0  0  0  0  0  0  0  0  0  0  0  0
   -1.8629   -0.2953    2.1245 H   0  0  0  0  0  0  0  0  0  0  0  0
    7.4360    0.8684    0.4092 H   0  0  0  0  0  0  0  0  0  0  0  0
    6.6283   -0.5179    2.2668 H   0  0  0  0  0  0  0  0  0  0  0  0
   -3.3750    1.5607    2.5157 H   0  0  0  0  0  0  0  0  0  0  0  0
   -2.5369   -3.1133    0.3626 H   0  0  0  0  0  0  0  0  0  0  0  0
   -1.1663   -2.1943    0.9111 H   0  0  0  0  0  0  0  0  0  0  0  0
    1.0584    0.6456   -0.1613 H   0  0  0  0  0  0  0  0  0  0  0  0
    0.2643   -0.4824    0.9220 H   0  0  0  0  0  0  0  0  0  0  0  0
   -2.1491   -2.3596   -1.9990 H   0  0  0  0  0  0  0  0  0  0  0  0
   -0.8911   -3.3219   -1.3062 H   0  0  0  0  0  0  0  0  0  0  0  0
    1.1343   -2.4004   -0.5972 H   0  0  0  0  0  0  0  0  0  0  0  0
    1.7257   -1.1778   -1.6777 H   0  0  0  0  0  0  0  0  0  0  0  0
   -4.2002   -1.5532   -1.2495 H   0  0  0  0  0  0  0  0  0  0  0  0
    3.4577    1.0775   -1.2397 H   0  0  0  0  0  0  0  0  0  0  0  0
    1.8461   -1.8570    2.7267 H   0  0  0  0  0  0  0  0  0  0  0  0
    4.2820   -1.6892    3.2814 H   0  0  0  0  0  0  0  0  0  0  0  0
  1 24  1  0
  2 25  1  0
  3 26  1  0
  4 27  1  0
  5  8  2  0
  5 16  1  0
  6  7  2  0
  6 18  1  0
  7 20  1  0
  8 21  1  0
  9 11  1  0
  9 16  1  0
 10 12  1  0
 10 17  1  0
 11 24  1  0
 12 24  1  0
 13 16  2  0
 13 22  1  0
 14 18  2  0
 14 19  1  0
 15 17  2  0
 15 23  1  0
 17 19  1  0
 18 25  1  0
 19 20  2  0
 20 23  1  0
 21 22  2  0
 21 26  1  0
 22 27  1  0
  1 28  1  0
  1 29  1  0
  1 30  1  0
  2 31  1  0
  2 32  1  0
  2 33  1  0
  3 34  1  0
  3 35  1  0
  3 36  1  0
  4 37  1  0
  4 38  1  0
  4 39  1  0
  5 40  1  0
  6 41  1  0
  7 42  1  0
  8 43  1  0
  9 44  1  0
  9 45  1  0
 10 46  1  0
 10 47  1  0
 11 48  1  0
 11 49  1  0
 12 50  1  0
 12 51  1  0
 13 52  1  0
 14 53  1  0
 15 54  1  0
 23 55  1  0
M  END
