
     RDKit          3D

 57 59  0  0  0  0  0  0  0  0999 V2000
   -3.6720   -1.9550   -1.8100 C   0  0  0  0  0  0  0  0  0  0  0  0
   -4.8549   -2.0925    1.7247 C   0  0  0  0  0  0  0  0  0  0  0  0
    6.8921   -0.4171    1.5665 C   0  0  0  0  0  0  0  0  0  0  0  0
   -3.4713   -0.8966   -0.7296 C   0  0  0  0  0  0  0  0  0  0  0  0
   -3.4826   -2.4670    1.1713 C   0  0  0  0  0  0  0  0  0  0  0  0
    6.6233   -1.6109    0.6676 C   0  0  0  0  0  0  0  0  0  0  0  0
    2.8744   -0.4399   -1.0439 C   0  0  0  0  0  0  0  0  0  0  0  0
    1.9014   -2.3613    0.0343 C   0  0  0  0  0  0  0  0  0  0  0  0
   -1.6858    4.5006    0.1144 C   0  0  0  0  0  0  0  0  0  0  0  0
    4.1117   -0.7314   -0.4579 C   0  0  0  0  0  0  0  0  0  0  0  0
    3.1374   -2.6476    0.6195 C   0  0  0  0  0  0  0  0  0  0  0  0
   -1.5355    3.2079    0.6295 C   0  0  0  0  0  0  0  0  0  0  0  0
   -2.3602   -0.3021    1.3582 C   0  0  0  0  0  0  0  0  0  0  0  0
   -0.9028    0.1482    1.1556 C   0  0  0  0  0  0  0  0  0  0  0  0
    0.4184   -0.9401   -1.4426 C   0  0  0  0  0  0  0  0  0  0  0  0
   -0.6749    3.8377   -2.0154 C   0  0  0  0  0  0  0  0  0  0  0  0
    1.7533   -1.2449   -0.7969 C   0  0  0  0  0  0  0  0  0  0  0  0
   -1.2621    4.8069   -1.1879 C   0  0  0  0  0  0  0  0  0  0  0  0
    4.2500   -1.8397    0.3753 C   0  0  0  0  0  0  0  0  0  0  0  0
   -0.5235    2.5430   -1.5012 C   0  0  0  0  0  0  0  0  0  0  0  0
   -0.9503    2.2512   -0.2099 C   0  0  0  0  0  0  0  0  0  0  0  0
   -0.0598    0.4635   -1.2119 C   0  0  0  0  0  0  0  0  0  0  0  0
    0.0145    1.4379   -2.1010 N   0  0  0  0  0  0  0  0  0  0  0  0
   -2.7559   -1.4035    0.4559 N   0  0  0  0  0  0  0  0  0  0  0  0
   -0.6573    0.9117   -0.0508 N   0  0  0  0  0  0  0  0  0  0  0  0
   -1.4362    6.1718   -1.6994 N   0  0  0  0  0  4  0  0  0  0  0  0
   -1.0307    6.4180   -2.8439 O   0  0  0  0  0  1  0  0  0  0  0  0
   -1.9818    7.0004   -0.9555 O   0  0  0  0  0  0  0  0  0  0  0  0
    5.3895   -2.2362    1.0170 O   0  0  0  0  0  0  0  0  0  0  0  0
   -4.0715   -1.4888   -2.7172 H   0  0  0  0  0  0  0  0  0  0  0  0
   -4.3822   -2.7271   -1.4992 H   0  0  0  0  0  0  0  0  0  0  0  0
   -2.7243   -2.4359   -2.0739 H   0  0  0  0  0  0  0  0  0  0  0  0
   -4.8040   -1.2220    2.3855 H   0  0  0  0  0  0  0  0  0  0  0  0
   -5.2571   -2.9271    2.3087 H   0  0  0  0  0  0  0  0  0  0  0  0
   -5.5698   -1.8797    0.9246 H   0  0  0  0  0  0  0  0  0  0  0  0
    6.1230    0.3525    1.4511 H   0  0  0  0  0  0  0  0  0  0  0  0
    6.8807   -0.7198    2.6190 H   0  0  0  0  0  0  0  0  0  0  0  0
    7.8659    0.0262    1.3406 H   0  0  0  0  0  0  0  0  0  0  0  0
   -4.4385   -0.4581   -0.4578 H   0  0  0  0  0  0  0  0  0  0  0  0
   -2.8945   -0.0889   -1.1905 H   0  0  0  0  0  0  0  0  0  0  0  0
   -3.5883   -3.3430    0.5212 H   0  0  0  0  0  0  0  0  0  0  0  0
   -2.8551   -2.8210    2.0000 H   0  0  0  0  0  0  0  0  0  0  0  0
    6.6819   -1.3554   -0.3962 H   0  0  0  0  0  0  0  0  0  0  0  0
    7.4079   -2.3567    0.8395 H   0  0  0  0  0  0  0  0  0  0  0  0
    2.7889    0.4281   -1.6971 H   0  0  0  0  0  0  0  0  0  0  0  0
    1.0578   -3.0180    0.2350 H   0  0  0  0  0  0  0  0  0  0  0  0
   -2.1385    5.2625    0.7480 H   0  0  0  0  0  0  0  0  0  0  0  0
    4.9398   -0.0643   -0.6710 H   0  0  0  0  0  0  0  0  0  0  0  0
    3.2372   -3.5151    1.2672 H   0  0  0  0  0  0  0  0  0  0  0  0
   -1.8619    2.9692    1.6366 H   0  0  0  0  0  0  0  0  0  0  0  0
   -3.0543    0.5447    1.2846 H   0  0  0  0  0  0  0  0  0  0  0  0
   -2.4161   -0.6395    2.4017 H   0  0  0  0  0  0  0  0  0  0  0  0
   -0.2311   -0.7135    1.1802 H   0  0  0  0  0  0  0  0  0  0  0  0
   -0.6008    0.7857    1.9960 H   0  0  0  0  0  0  0  0  0  0  0  0
   -0.3434   -1.6485   -1.0989 H   0  0  0  0  0  0  0  0  0  0  0  0
    0.5191   -1.1118   -2.5220 H   0  0  0  0  0  0  0  0  0  0  0  0
   -0.3392    4.0523   -3.0242 H   0  0  0  0  0  0  0  0  0  0  0  0
  1  4  1  0
  2  5  1  0
  3  6  1  0
  4 24  1  0
  5 24  1  0
  6 29  1  0
  7 10  2  0
  7 17  1  0
  8 11  1  0
  8 17  2  0
  9 12  2  0
  9 18  1  0
 10 19  1  0
 11 19  2  0
 12 21  1  0
 13 14  1  0
 13 24  1  0
 14 25  1  0
 15 17  1  0
 15 22  1  0
 16 18  2  0
 16 20  1  0
 18 26  1  0
 19 29  1  0
 20 21  2  0
 20 23  1  0
 21 25  1  0
 22 23  2  0
 22 25  1  0
 26 27  1  0
 26 28  2  0
  1 30  1  0
  1 31  1  0
  1 32  1  0
  2 33  1  0
  2 34  1  0
  2 35  1  0
  3 36  1  0
  3 37  1  0
  3 38  1  0
  4 39  1  0
  4 40  1  0
  5 41  1  0
  5 42  1  0
  6 43  1  0
  6 44  1  0
  7 45  1  0
  8 46  1  0
  9 47  1  0
 10 48  1  0
 11 49  1  0
 12 50  1  0
 13 51  1  0
 13 52  1  0
 14 53  1  0
 14 54  1  0
 15 55  1  0
 15 56  1  0
 16 57  1  0
M  CHG  2  26   1  27  -1
M  END
