
     RDKit          3D

 58 60  0  0  0  0  0  0  0  0999 V2000
    6.1634    0.3036    0.3764 C   0  0  0  0  0  0  0  0  0  0  0  0
    5.7165   -1.9319    1.3918 C   0  0  0  0  0  0  0  0  0  0  0  0
   -4.9541   -1.5341   -2.4209 C   0  0  0  0  0  0  0  0  0  0  0  0
   -3.7273   -2.1896   -1.7921 C   0  0  0  0  0  0  0  0  0  0  0  0
   -4.8621   -0.0122   -2.4000 C   0  0  0  0  0  0  0  0  0  0  0  0
   -3.4593   -1.6504   -0.3885 C   0  0  0  0  0  0  0  0  0  0  0  0
   -4.5853    0.5181   -0.9945 C   0  0  0  0  0  0  0  0  0  0  0  0
   -0.6846    3.0492    1.0168 C   0  0  0  0  0  0  0  0  0  0  0  0
   -1.5095    1.5777    2.7562 C   0  0  0  0  0  0  0  0  0  0  0  0
   -1.2018    4.1495    1.7029 C   0  0  0  0  0  0  0  0  0  0  0  0
   -2.0263    2.6790    3.4415 C   0  0  0  0  0  0  0  0  0  0  0  0
    0.8175   -0.1489    1.1109 C   0  0  0  0  0  0  0  0  0  0  0  0
   -2.0528    0.4178   -1.0023 C   0  0  0  0  0  0  0  0  0  0  0  0
    5.3933   -1.0125    0.2061 C   0  0  0  0  0  0  0  0  0  0  0  0
   -3.3423   -0.1165   -0.3468 C   0  0  0  0  0  0  0  0  0  0  0  0
   -0.8446    1.7567    1.5351 C   0  0  0  0  0  0  0  0  0  0  0  0
   -1.8692    3.9542    2.9072 C   0  0  0  0  0  0  0  0  0  0  0  0
    0.9095   -1.1236    0.0854 C   0  0  0  0  0  0  0  0  0  0  0  0
   -0.2989    0.6095    0.8263 C   0  0  0  0  0  0  0  0  0  0  0  0
    3.8685   -0.7691    0.0826 C   0  0  0  0  0  0  0  0  0  0  0  0
    3.5676    0.0824   -1.1457 C   0  0  0  0  0  0  0  0  0  0  0  0
    1.9177   -2.1634   -0.0842 C   0  0  0  0  0  0  0  0  0  0  0  0
   -2.3635    5.0101    3.5662 F   0  0  0  0  0  0  0  0  0  0  0  0
    3.2381    1.3241   -1.0904 N   0  0  0  0  0  0  0  0  0  0  0  0
    3.1958   -2.0741   -0.0456 N   0  0  0  0  0  0  0  0  0  0  0  0
   -0.1177   -0.9999   -0.7732 N   0  0  0  0  0  0  0  0  0  0  0  0
   -0.8378    0.0361   -0.3001 N   0  0  0  0  0  0  0  0  0  0  0  0
    3.6622   -0.5424   -2.3240 O   0  0  0  0  0  0  0  0  0  0  0  0
    1.4286   -3.4011   -0.3085 O   0  0  0  0  0  0  0  0  0  0  0  0
    7.2338    0.1141    0.5108 H   0  0  0  0  0  0  0  0  0  0  0  0
    5.8068    0.8589    1.2498 H   0  0  0  0  0  0  0  0  0  0  0  0
    6.0576    0.9449   -0.5049 H   0  0  0  0  0  0  0  0  0  0  0  0
    5.3292   -1.5201    2.3305 H   0  0  0  0  0  0  0  0  0  0  0  0
    6.7984   -2.0610    1.5008 H   0  0  0  0  0  0  0  0  0  0  0  0
    5.2845   -2.9289    1.2524 H   0  0  0  0  0  0  0  0  0  0  0  0
   -5.0718   -1.8832   -3.4534 H   0  0  0  0  0  0  0  0  0  0  0  0
   -5.8530   -1.8497   -1.8744 H   0  0  0  0  0  0  0  0  0  0  0  0
   -2.8521   -2.0260   -2.4329 H   0  0  0  0  0  0  0  0  0  0  0  0
   -3.8805   -3.2743   -1.7417 H   0  0  0  0  0  0  0  0  0  0  0  0
   -5.8000    0.4130   -2.7719 H   0  0  0  0  0  0  0  0  0  0  0  0
   -4.0748    0.3186   -3.0853 H   0  0  0  0  0  0  0  0  0  0  0  0
   -2.5620   -2.1242    0.0254 H   0  0  0  0  0  0  0  0  0  0  0  0
   -4.2894   -1.9538    0.2652 H   0  0  0  0  0  0  0  0  0  0  0  0
   -4.4820    1.6087   -1.0263 H   0  0  0  0  0  0  0  0  0  0  0  0
   -5.4580    0.3079   -0.3630 H   0  0  0  0  0  0  0  0  0  0  0  0
   -0.1442    3.2044    0.0854 H   0  0  0  0  0  0  0  0  0  0  0  0
   -1.6289    0.5822    3.1768 H   0  0  0  0  0  0  0  0  0  0  0  0
   -1.0799    5.1538    1.3125 H   0  0  0  0  0  0  0  0  0  0  0  0
   -2.5437    2.5517    4.3850 H   0  0  0  0  0  0  0  0  0  0  0  0
    1.4855   -0.0081    1.9500 H   0  0  0  0  0  0  0  0  0  0  0  0
   -2.0670    1.5127   -1.0389 H   0  0  0  0  0  0  0  0  0  0  0  0
   -1.9500    0.0769   -2.0380 H   0  0  0  0  0  0  0  0  0  0  0  0
    5.7589   -1.5025   -0.7069 H   0  0  0  0  0  0  0  0  0  0  0  0
   -3.3355    0.1823    0.7084 H   0  0  0  0  0  0  0  0  0  0  0  0
    3.5298   -0.2462    0.9823 H   0  0  0  0  0  0  0  0  0  0  0  0
    3.0788    1.7106   -2.0195 H   0  0  0  0  0  0  0  0  0  0  0  0
    3.3702    0.0155   -3.0563 H   0  0  0  0  0  0  0  0  0  0  0  0
    2.1976   -3.9764   -0.4434 H   0  0  0  0  0  0  0  0  0  0  0  0
  1 14  1  0
  2 14  1  0
  3  4  1  0
  3  5  1  0
  4  6  1  0
  5  7  1  0
  6 15  1  0
  7 15  1  0
  8 10  2  0
  8 16  1  0
  9 11  1  0
  9 16  2  0
 10 17  1  0
 11 17  2  0
 12 18  1  0
 12 19  2  0
 13 15  1  0
 13 27  1  0
 14 20  1  0
 16 19  1  0
 17 23  1  0
 18 22  1  0
 18 26  2  0
 19 27  1  0
 20 21  1  0
 20 25  1  0
 21 24  2  3
 21 28  1  0
 22 25  2  3
 22 29  1  0
 26 27  1  0
  1 30  1  0
  1 31  1  0
  1 32  1  0
  2 33  1  0
  2 34  1  0
  2 35  1  0
  3 36  1  0
  3 37  1  0
  4 38  1  0
  4 39  1  0
  5 40  1  0
  5 41  1  0
  6 42  1  0
  6 43  1  0
  7 44  1  0
  7 45  1  0
  8 46  1  0
  9 47  1  0
 10 48  1  0
 11 49  1  0
 12 50  1  0
 13 51  1  0
 13 52  1  0
 14 53  1  0
 15 54  1  0
 20 55  1  0
 24 56  1  0
 28 57  1  0
 29 58  1  0
M  END
