
     RDKit          3D

 55 58  0  0  0  0  0  0  0  0999 V2000
   -5.4775   -1.2988   -0.8519 C   0  0  0  0  0  0  0  0  0  0  0  0
   -3.3300   -0.0140   -3.3820 C   0  0  0  0  0  0  0  0  0  0  0  0
    0.7178    3.8992   -0.9332 C   0  0  0  0  0  0  0  0  0  0  0  0
    0.9266    3.3921    1.5209 C   0  0  0  0  0  0  0  0  0  0  0  0
   -4.9493    0.0808   -0.4878 C   0  0  0  0  0  0  0  0  0  0  0  0
   -3.3658    0.9635   -2.2181 C   0  0  0  0  0  0  0  0  0  0  0  0
    2.4005   -4.3142    1.6304 C   0  0  0  0  0  0  0  0  0  0  0  0
    1.4536   -3.3528    1.2479 C   0  0  0  0  0  0  0  0  0  0  0  0
    3.7811   -4.0649    1.5572 C   0  0  0  0  0  0  0  0  0  0  0  0
   -0.2115   -1.1710   -0.1560 C   0  0  0  0  0  0  0  0  0  0  0  0
    3.1365    0.4845   -0.1764 C   0  0  0  0  0  0  0  0  0  0  0  0
    5.2680   -0.9489    0.4069 C   0  0  0  0  0  0  0  0  0  0  0  0
   -0.6039    1.2926    0.0633 C   0  0  0  0  0  0  0  0  0  0  0  0
    1.2635    2.9066    0.1054 C   0  0  0  0  0  0  0  0  0  0  0  0
    3.9210   -0.6961    0.2873 C   0  0  0  0  0  0  0  0  0  0  0  0
   -1.0888   -0.0205   -0.5730 C   0  0  0  0  0  0  0  0  0  0  0  0
    1.8622   -2.1012    0.7742 C   0  0  0  0  0  0  0  0  0  0  0  0
    1.0273   -0.9634    0.3268 C   0  0  0  0  0  0  0  0  0  0  0  0
    4.1706   -2.8082    1.0885 C   0  0  0  0  0  0  0  0  0  0  0  0
    1.6699    0.4614    0.4137 C   0  0  0  0  0  0  0  0  0  0  0  0
    3.2392   -1.8562    0.7103 C   0  0  0  0  0  0  0  0  0  0  0  0
   -2.5491   -0.2516   -0.1431 C   0  0  0  0  0  0  0  0  0  0  0  0
    5.4074   -2.2323    0.8927 N   0  0  0  0  0  0  0  0  0  0  0  0
   -3.5680    0.3088   -0.9214 N   0  0  0  0  0  0  0  0  0  0  0  0
    0.8269    1.5294   -0.2217 N   0  0  0  0  0  0  0  0  0  0  0  0
   -2.8114   -0.8805    0.8874 O   0  0  0  0  0  0  0  0  0  0  0  0
   -6.4877   -1.4316   -0.4516 H   0  0  0  0  0  0  0  0  0  0  0  0
   -4.8443   -2.0926   -0.4436 H   0  0  0  0  0  0  0  0  0  0  0  0
   -5.5273   -1.4365   -1.9347 H   0  0  0  0  0  0  0  0  0  0  0  0
   -2.5994   -0.8119   -3.2181 H   0  0  0  0  0  0  0  0  0  0  0  0
   -3.0647    0.5101   -4.3056 H   0  0  0  0  0  0  0  0  0  0  0  0
   -4.3063   -0.4808   -3.5372 H   0  0  0  0  0  0  0  0  0  0  0  0
    1.1870    4.8811   -0.8015 H   0  0  0  0  0  0  0  0  0  0  0  0
    0.9435    3.5638   -1.9516 H   0  0  0  0  0  0  0  0  0  0  0  0
   -0.3639    4.0426   -0.8495 H   0  0  0  0  0  0  0  0  0  0  0  0
    1.3348    2.7246    2.2853 H   0  0  0  0  0  0  0  0  0  0  0  0
    1.3610    4.3835    1.6931 H   0  0  0  0  0  0  0  0  0  0  0  0
   -0.1529    3.4801    1.6801 H   0  0  0  0  0  0  0  0  0  0  0  0
   -4.9931    0.1983    0.6017 H   0  0  0  0  0  0  0  0  0  0  0  0
   -5.5935    0.8586   -0.9120 H   0  0  0  0  0  0  0  0  0  0  0  0
   -2.4322    1.5314   -2.1983 H   0  0  0  0  0  0  0  0  0  0  0  0
   -4.1627    1.7002   -2.3693 H   0  0  0  0  0  0  0  0  0  0  0  0
    2.0554   -5.2789    1.9972 H   0  0  0  0  0  0  0  0  0  0  0  0
    0.3963   -3.5875    1.3373 H   0  0  0  0  0  0  0  0  0  0  0  0
    4.5037   -4.8161    1.8557 H   0  0  0  0  0  0  0  0  0  0  0  0
   -0.6275   -2.1691   -0.2556 H   0  0  0  0  0  0  0  0  0  0  0  0
    3.0956    0.4744   -1.2729 H   0  0  0  0  0  0  0  0  0  0  0  0
    3.6661    1.3912    0.1331 H   0  0  0  0  0  0  0  0  0  0  0  0
    6.1378   -0.3431    0.1918 H   0  0  0  0  0  0  0  0  0  0  0  0
   -0.7862    1.2766    1.1471 H   0  0  0  0  0  0  0  0  0  0  0  0
   -1.2168    2.1071   -0.3353 H   0  0  0  0  0  0  0  0  0  0  0  0
    2.3500    2.9720   -0.0041 H   0  0  0  0  0  0  0  0  0  0  0  0
   -1.0210    0.0286   -1.6635 H   0  0  0  0  0  0  0  0  0  0  0  0
    1.7428    0.6698    1.4912 H   0  0  0  0  0  0  0  0  0  0  0  0
    6.2886   -2.6900    1.0787 H   0  0  0  0  0  0  0  0  0  0  0  0
  1  5  1  0
  2  6  1  0
  3 14  1  0
  4 14  1  0
  5 24  1  0
  6 24  1  0
  7  8  2  0
  7  9  1  0
  8 17  1  0
  9 19  2  0
 10 16  1  0
 10 18  2  0
 11 15  1  0
 11 20  1  0
 12 15  2  0
 12 23  1  0
 13 16  1  0
 13 25  1  0
 14 25  1  0
 15 21  1  0
 16 22  1  0
 17 18  1  0
 17 21  2  0
 18 20  1  0
 19 21  1  0
 19 23  1  0
 20 25  1  0
 22 24  1  0
 22 26  2  0
  1 27  1  0
  1 28  1  0
  1 29  1  0
  2 30  1  0
  2 31  1  0
  2 32  1  0
  3 33  1  0
  3 34  1  0
  3 35  1  0
  4 36  1  0
  4 37  1  0
  4 38  1  0
  5 39  1  0
  5 40  1  0
  6 41  1  0
  6 42  1  0
  7 43  1  0
  8 44  1  0
  9 45  1  0
 10 46  1  0
 11 47  1  0
 11 48  1  0
 12 49  1  0
 13 50  1  0
 13 51  1  0
 14 52  1  0
 16 53  1  0
 20 54  1  0
 23 55  1  0
M  END
