
     RDKit          3D

 57 60  0  0  0  0  0  0  0  0999 V2000
    5.6250   -2.6612    0.5405 C   0  0  0  0  0  0  0  0  0  0  0  0
   -3.4605    3.4570    0.8747 C   0  0  0  0  0  0  0  0  0  0  0  0
   -4.8125   -2.0458    0.3210 C   0  0  0  0  0  0  0  0  0  0  0  0
   -4.1433   -2.9361   -0.7219 C   0  0  0  0  0  0  0  0  0  0  0  0
   -3.5315    3.2891    2.2492 C   0  0  0  0  0  0  0  0  0  0  0  0
   -2.6088    2.6466    0.1242 C   0  0  0  0  0  0  0  0  0  0  0  0
    6.5008    0.0559    0.4392 C   0  0  0  0  0  0  0  0  0  0  0  0
   -3.7084   -1.1537    0.8902 C   0  0  0  0  0  0  0  0  0  0  0  0
   -2.6576   -2.5928   -0.6690 C   0  0  0  0  0  0  0  0  0  0  0  0
    0.5506    1.0979    0.6143 C   0  0  0  0  0  0  0  0  0  0  0  0
   -0.8842    0.8418   -1.5138 C   0  0  0  0  0  0  0  0  0  0  0  0
   -2.7432    2.3102    2.8202 C   0  0  0  0  0  0  0  0  0  0  0  0
    1.7919    0.3962    0.0421 C   0  0  0  0  0  0  0  0  0  0  0  0
   -2.0709    0.1268   -2.1641 C   0  0  0  0  0  0  0  0  0  0  0  0
    6.6756    1.4021    0.1999 C   0  0  0  0  0  0  0  0  0  0  0  0
    3.4297    0.3752   -1.7630 C   0  0  0  0  0  0  0  0  0  0  0  0
   -1.2299   -0.7330    0.3549 C   0  0  0  0  0  0  0  0  0  0  0  0
    5.3481   -0.4623   -0.2236 C   0  0  0  0  0  0  0  0  0  0  0  0
    4.6804    0.5113   -0.9419 C   0  0  0  0  0  0  0  0  0  0  0  0
   -1.8429    1.6736    0.7663 C   0  0  0  0  0  0  0  0  0  0  0  0
   -0.8586    0.7378    0.0296 C   0  0  0  0  0  0  0  0  0  0  0  0
   -2.6165   -1.1332   -0.1913 C   0  0  0  0  0  0  0  0  0  0  0  0
    2.2729    1.0621   -1.1716 N   0  0  0  0  0  0  0  0  0  0  0  0
   -1.9107    1.5115    2.1176 N   0  0  0  0  0  0  0  0  0  0  0  0
    4.8653   -1.7326   -0.2204 O   0  0  0  0  0  0  0  0  0  0  0  0
   -3.0689   -0.2512   -1.2292 O   0  0  0  0  0  0  0  0  0  0  0  0
    5.4675    2.0345   -0.8271 S   0  0  0  0  0  0  0  0  0  0  0  0
    6.6448   -2.7531    0.1507 H   0  0  0  0  0  0  0  0  0  0  0  0
    5.6330   -2.3900    1.6023 H   0  0  0  0  0  0  0  0  0  0  0  0
    5.1457   -3.6409    0.4501 H   0  0  0  0  0  0  0  0  0  0  0  0
   -4.0676    4.2110    0.3820 H   0  0  0  0  0  0  0  0  0  0  0  0
   -5.2876   -2.6342    1.1127 H   0  0  0  0  0  0  0  0  0  0  0  0
   -5.5950   -1.4402   -0.1502 H   0  0  0  0  0  0  0  0  0  0  0  0
   -4.5511   -2.7148   -1.7151 H   0  0  0  0  0  0  0  0  0  0  0  0
   -4.3166   -3.9987   -0.5254 H   0  0  0  0  0  0  0  0  0  0  0  0
   -4.1853    3.9022    2.8578 H   0  0  0  0  0  0  0  0  0  0  0  0
   -2.5779    2.7874   -0.9492 H   0  0  0  0  0  0  0  0  0  0  0  0
    7.1778   -0.5108    1.0652 H   0  0  0  0  0  0  0  0  0  0  0  0
   -3.3343   -1.5970    1.8211 H   0  0  0  0  0  0  0  0  0  0  0  0
   -4.1093   -0.1614    1.1171 H   0  0  0  0  0  0  0  0  0  0  0  0
   -2.1563   -3.2507    0.0526 H   0  0  0  0  0  0  0  0  0  0  0  0
   -2.1930   -2.7429   -1.6483 H   0  0  0  0  0  0  0  0  0  0  0  0
    0.7020    2.1864    0.5525 H   0  0  0  0  0  0  0  0  0  0  0  0
    0.5440    0.8736    1.6914 H   0  0  0  0  0  0  0  0  0  0  0  0
   -0.0001    0.3660   -1.9493 H   0  0  0  0  0  0  0  0  0  0  0  0
   -0.8266    1.8829   -1.8521 H   0  0  0  0  0  0  0  0  0  0  0  0
   -2.7582    2.1324    3.8913 H   0  0  0  0  0  0  0  0  0  0  0  0
    1.5843   -0.6612   -0.1491 H   0  0  0  0  0  0  0  0  0  0  0  0
    2.5728    0.4379    0.8107 H   0  0  0  0  0  0  0  0  0  0  0  0
   -2.5387    0.7884   -2.9013 H   0  0  0  0  0  0  0  0  0  0  0  0
   -1.7334   -0.7585   -2.7151 H   0  0  0  0  0  0  0  0  0  0  0  0
    7.4606    2.0447    0.5750 H   0  0  0  0  0  0  0  0  0  0  0  0
    3.6079    0.8073   -2.7557 H   0  0  0  0  0  0  0  0  0  0  0  0
    3.1881   -0.6793   -1.9435 H   0  0  0  0  0  0  0  0  0  0  0  0
   -1.1590   -0.9427    1.4294 H   0  0  0  0  0  0  0  0  0  0  0  0
   -0.4825   -1.3886   -0.1103 H   0  0  0  0  0  0  0  0  0  0  0  0
    2.5524    2.0168   -0.9441 H   0  0  0  0  0  0  0  0  0  0  0  0
  1 25  1  0
  2  5  2  0
  2  6  1  0
  3  4  1  0
  3  8  1  0
  4  9  1  0
  5 12  1  0
  6 20  2  0
  7 15  2  0
  7 18  1  0
  8 22  1  0
  9 22  1  0
 10 13  1  0
 10 21  1  0
 11 14  1  0
 11 21  1  0
 12 24  2  0
 13 23  1  0
 14 26  1  0
 15 27  1  0
 16 19  1  0
 16 23  1  0
 17 21  1  0
 17 22  1  0
 18 19  2  0
 18 25  1  0
 19 27  1  0
 20 21  1  0
 20 24  1  0
 22 26  1  0
  1 28  1  0
  1 29  1  0
  1 30  1  0
  2 31  1  0
  3 32  1  0
  3 33  1  0
  4 34  1  0
  4 35  1  0
  5 36  1  0
  6 37  1  0
  7 38  1  0
  8 39  1  0
  8 40  1  0
  9 41  1  0
  9 42  1  0
 10 43  1  0
 10 44  1  0
 11 45  1  0
 11 46  1  0
 12 47  1  0
 13 48  1  0
 13 49  1  0
 14 50  1  0
 14 51  1  0
 15 52  1  0
 16 53  1  0
 16 54  1  0
 17 55  1  0
 17 56  1  0
 23 57  1  0
M  END
