
     RDKit          3D

 48 51  0  0  0  0  0  0  0  0999 V2000
    5.3591    0.3821   -0.2124 C   0  0  0  0  0  0  0  0  0  0  0  0
   -6.5650    0.5091   -1.2351 C   0  0  0  0  0  0  0  0  0  0  0  0
   -5.5563    0.8350   -2.1322 C   0  0  0  0  0  0  0  0  0  0  0  0
   -0.9215   -3.2137   -0.0932 C   0  0  0  0  0  0  0  0  0  0  0  0
    0.4165   -3.5670   -0.2381 C   0  0  0  0  0  0  0  0  0  0  0  0
    6.2621    0.3464    1.0249 C   0  0  0  0  0  0  0  0  0  0  0  0
    3.8764    0.1621    0.0915 C   0  0  0  0  0  0  0  0  0  0  0  0
   -3.4187    0.7221    2.4836 C   0  0  0  0  0  0  0  0  0  0  0  0
   -6.2764    0.4049    0.1250 C   0  0  0  0  0  0  0  0  0  0  0  0
   -4.7025    0.5109    1.9821 C   0  0  0  0  0  0  0  0  0  0  0  0
   -4.2577    1.0553   -1.6696 C   0  0  0  0  0  0  0  0  0  0  0  0
   -1.3277   -1.8800   -0.2238 C   0  0  0  0  0  0  0  0  0  0  0  0
   -2.3834    1.0439    1.6148 C   0  0  0  0  0  0  0  0  0  0  0  0
    1.3861   -2.6030   -0.5239 C   0  0  0  0  0  0  0  0  0  0  0  0
    5.9510    1.4246    2.0501 C   0  0  0  0  0  0  0  0  0  0  0  0
    3.0660    0.0213   -1.1963 C   0  0  0  0  0  0  0  0  0  0  0  0
   -4.9756    0.6232    0.6079 C   0  0  0  0  0  0  0  0  0  0  0  0
   -3.9356    0.9558   -0.2949 C   0  0  0  0  0  0  0  0  0  0  0  0
   -2.6353    1.1501    0.2378 C   0  0  0  0  0  0  0  0  0  0  0  0
   -0.3670   -0.8828   -0.4994 C   0  0  0  0  0  0  0  0  0  0  0  0
    0.9633   -1.2714   -0.6538 C   0  0  0  0  0  0  0  0  0  0  0  0
   -0.3686    0.5376   -0.6979 C   0  0  0  0  0  0  0  0  0  0  0  0
   -1.4912    1.4856   -0.6397 C   0  0  0  0  0  0  0  0  0  0  0  0
    4.7855    1.1251    2.6806 F   0  0  0  0  0  0  0  0  0  0  0  0
    0.8712    0.9806   -0.9763 N   0  0  0  0  0  0  0  0  0  0  0  0
    1.6438   -0.1155   -0.9354 N   0  0  0  0  0  0  0  0  0  0  0  0
   -1.5265    2.5507   -1.2539 O   0  0  0  0  0  0  0  0  0  0  0  0
    5.4870    1.3415   -0.7287 H   0  0  0  0  0  0  0  0  0  0  0  0
    5.7041   -0.3956   -0.9053 H   0  0  0  0  0  0  0  0  0  0  0  0
   -7.5778    0.3406   -1.5915 H   0  0  0  0  0  0  0  0  0  0  0  0
   -5.7760    0.9254   -3.1931 H   0  0  0  0  0  0  0  0  0  0  0  0
   -1.6624   -3.9806    0.1213 H   0  0  0  0  0  0  0  0  0  0  0  0
    0.7117   -4.6087   -0.1325 H   0  0  0  0  0  0  0  0  0  0  0  0
    6.1802   -0.6379    1.5003 H   0  0  0  0  0  0  0  0  0  0  0  0
    7.3002    0.4654    0.6931 H   0  0  0  0  0  0  0  0  0  0  0  0
    3.7522   -0.7362    0.7085 H   0  0  0  0  0  0  0  0  0  0  0  0
    3.4846    1.0046    0.6732 H   0  0  0  0  0  0  0  0  0  0  0  0
   -3.2302    0.6393    3.5512 H   0  0  0  0  0  0  0  0  0  0  0  0
   -7.0829    0.1519    0.8105 H   0  0  0  0  0  0  0  0  0  0  0  0
   -5.4996    0.2606    2.6803 H   0  0  0  0  0  0  0  0  0  0  0  0
   -3.4958    1.3204   -2.4017 H   0  0  0  0  0  0  0  0  0  0  0  0
   -2.3810   -1.6390   -0.1156 H   0  0  0  0  0  0  0  0  0  0  0  0
   -1.3850    1.2182    2.0114 H   0  0  0  0  0  0  0  0  0  0  0  0
    2.4273   -2.8856   -0.6409 H   0  0  0  0  0  0  0  0  0  0  0  0
    6.7339    1.4670    2.8126 H   0  0  0  0  0  0  0  0  0  0  0  0
    5.8524    2.4119    1.5897 H   0  0  0  0  0  0  0  0  0  0  0  0
    3.3847   -0.8557   -1.7705 H   0  0  0  0  0  0  0  0  0  0  0  0
    3.2003    0.8991   -1.8398 H   0  0  0  0  0  0  0  0  0  0  0  0
  1  6  1  0
  1  7  1  0
  2  3  2  0
  2  9  1  0
  3 11  1  0
  4  5  2  0
  4 12  1  0
  5 14  1  0
  6 15  1  0
  7 16  1  0
  8 10  2  0
  8 13  1  0
  9 17  2  0
 10 17  1  0
 11 18  2  0
 12 20  2  0
 13 19  2  0
 14 21  2  0
 15 24  1  0
 16 26  1  0
 17 18  1  0
 18 19  1  0
 19 23  1  0
 20 21  1  0
 20 22  1  0
 21 26  1  0
 22 23  1  0
 22 25  2  0
 23 27  2  0
 25 26  1  0
  1 28  1  0
  1 29  1  0
  2 30  1  0
  3 31  1  0
  4 32  1  0
  5 33  1  0
  6 34  1  0
  6 35  1  0
  7 36  1  0
  7 37  1  0
  8 38  1  0
  9 39  1  0
 10 40  1  0
 11 41  1  0
 12 42  1  0
 13 43  1  0
 14 44  1  0
 15 45  1  0
 15 46  1  0
 16 47  1  0
 16 48  1  0
M  END
