
     RDKit          3D

 59 61  0  0  0  0  0  0  0  0999 V2000
   -4.9992   -0.6282   -1.6264 C   0  0  0  0  0  0  0  0  0  0  0  0
   -6.0037    0.8556    0.1062 C   0  0  0  0  0  0  0  0  0  0  0  0
   -4.7490   -1.1953    0.7999 C   0  0  0  0  0  0  0  0  0  0  0  0
   -3.4569    3.3794    2.4632 C   0  0  0  0  0  0  0  0  0  0  0  0
    5.7661    2.0627    1.2441 C   0  0  0  0  0  0  0  0  0  0  0  0
    6.1489    1.3598   -0.0599 C   0  0  0  0  0  0  0  0  0  0  0  0
    4.4926    1.5070    1.8836 C   0  0  0  0  0  0  0  0  0  0  0  0
   -0.1804   -4.0784   -0.8987 C   0  0  0  0  0  0  0  0  0  0  0  0
    1.1995   -4.2623   -0.8776 C   0  0  0  0  0  0  0  0  0  0  0  0
    5.6716   -0.0886   -0.0849 C   0  0  0  0  0  0  0  0  0  0  0  0
    3.5289    0.9733    0.8324 C   0  0  0  0  0  0  0  0  0  0  0  0
   -0.7285   -2.7973   -1.0358 C   0  0  0  0  0  0  0  0  0  0  0  0
    2.0719   -3.1774   -1.0021 C   0  0  0  0  0  0  0  0  0  0  0  0
    3.4844   -0.3378   -1.3502 C   0  0  0  0  0  0  0  0  0  0  0  0
    4.1375   -0.2025    0.0387 C   0  0  0  0  0  0  0  0  0  0  0  0
    0.1310   -1.6825   -1.1459 C   0  0  0  0  0  0  0  0  0  0  0  0
    1.5076   -1.9004   -1.1406 C   0  0  0  0  0  0  0  0  0  0  0  0
   -0.0248   -0.2646   -1.2838 C   0  0  0  0  0  0  0  0  0  0  0  0
   -3.4775    0.8097   -0.2085 C   0  0  0  0  0  0  0  0  0  0  0  0
   -1.2680    0.5279   -1.2955 C   0  0  0  0  0  0  0  0  0  0  0  0
   -3.1802    1.4575    1.1537 C   0  0  0  0  0  0  0  0  0  0  0  0
   -4.7875   -0.0362   -0.2153 C   0  0  0  0  0  0  0  0  0  0  0  0
   -2.2997   -0.0035   -0.5380 N   0  0  0  0  0  0  0  0  0  0  0  0
    1.1727    0.3383   -1.4003 N   0  0  0  0  0  0  0  0  0  0  0  0
    2.0673   -0.6570   -1.2908 N   0  0  0  0  0  0  0  0  0  0  0  0
   -1.3850    1.5956   -1.8910 O   0  0  0  0  0  0  0  0  0  0  0  0
   -2.5434    0.9059    2.0471 O   0  0  0  0  0  0  0  0  0  0  0  0
   -3.7318    2.7005    1.2362 O   0  0  0  0  0  0  0  0  0  0  0  0
   -5.9487   -1.1747   -1.6897 H   0  0  0  0  0  0  0  0  0  0  0  0
   -4.2006   -1.3303   -1.8939 H   0  0  0  0  0  0  0  0  0  0  0  0
   -5.0199    0.1634   -2.3863 H   0  0  0  0  0  0  0  0  0  0  0  0
   -6.0499    1.7195   -0.5646 H   0  0  0  0  0  0  0  0  0  0  0  0
   -5.9733    1.2267    1.1358 H   0  0  0  0  0  0  0  0  0  0  0  0
   -6.9415    0.2999   -0.0061 H   0  0  0  0  0  0  0  0  0  0  0  0
   -5.6818   -1.7717    0.7722 H   0  0  0  0  0  0  0  0  0  0  0  0
   -3.9314   -1.8925    0.5881 H   0  0  0  0  0  0  0  0  0  0  0  0
   -4.6251   -0.8298    1.8252 H   0  0  0  0  0  0  0  0  0  0  0  0
   -2.3803    3.4112    2.6605 H   0  0  0  0  0  0  0  0  0  0  0  0
   -3.8190    4.4067    2.3701 H   0  0  0  0  0  0  0  0  0  0  0  0
   -3.9895    2.8947    3.2885 H   0  0  0  0  0  0  0  0  0  0  0  0
    5.6440    3.1340    1.0404 H   0  0  0  0  0  0  0  0  0  0  0  0
    6.5866    1.9829    1.9669 H   0  0  0  0  0  0  0  0  0  0  0  0
    7.2360    1.4035   -0.1940 H   0  0  0  0  0  0  0  0  0  0  0  0
    5.7102    1.8984   -0.9084 H   0  0  0  0  0  0  0  0  0  0  0  0
    4.7527    0.6992    2.5787 H   0  0  0  0  0  0  0  0  0  0  0  0
    4.0097    2.2895    2.4802 H   0  0  0  0  0  0  0  0  0  0  0  0
   -0.8408   -4.9389   -0.8124 H   0  0  0  0  0  0  0  0  0  0  0  0
    1.6057   -5.2662   -0.7707 H   0  0  0  0  0  0  0  0  0  0  0  0
    6.1337   -0.6220    0.7578 H   0  0  0  0  0  0  0  0  0  0  0  0
    6.0316   -0.5876   -0.9939 H   0  0  0  0  0  0  0  0  0  0  0  0
    2.6003    0.6460    1.3160 H   0  0  0  0  0  0  0  0  0  0  0  0
    3.2582    1.7948    0.1572 H   0  0  0  0  0  0  0  0  0  0  0  0
   -1.8083   -2.6808   -1.0697 H   0  0  0  0  0  0  0  0  0  0  0  0
    3.1466   -3.3290   -0.9928 H   0  0  0  0  0  0  0  0  0  0  0  0
    3.5958    0.5861   -1.9313 H   0  0  0  0  0  0  0  0  0  0  0  0
    3.9625   -1.1369   -1.9290 H   0  0  0  0  0  0  0  0  0  0  0  0
    3.9335   -1.1264    0.5980 H   0  0  0  0  0  0  0  0  0  0  0  0
   -3.5589    1.6161   -0.9491 H   0  0  0  0  0  0  0  0  0  0  0  0
   -2.0026   -0.6469    0.1877 H   0  0  0  0  0  0  0  0  0  0  0  0
  1 22  1  0
  2 22  1  0
  3 22  1  0
  4 28  1  0
  5  6  1  0
  5  7  1  0
  6 10  1  0
  7 11  1  0
  8  9  2  0
  8 12  1  0
  9 13  1  0
 10 15  1  0
 11 15  1  0
 12 16  2  0
 13 17  2  0
 14 15  1  0
 14 25  1  0
 16 17  1  0
 16 18  1  0
 17 25  1  0
 18 20  1  0
 18 24  2  0
 19 21  1  0
 19 22  1  0
 19 23  1  0
 20 23  1  0
 20 26  2  0
 21 27  2  0
 21 28  1  0
 24 25  1  0
  1 29  1  0
  1 30  1  0
  1 31  1  0
  2 32  1  0
  2 33  1  0
  2 34  1  0
  3 35  1  0
  3 36  1  0
  3 37  1  0
  4 38  1  0
  4 39  1  0
  4 40  1  0
  5 41  1  0
  5 42  1  0
  6 43  1  0
  6 44  1  0
  7 45  1  0
  7 46  1  0
  8 47  1  0
  9 48  1  0
 10 49  1  0
 10 50  1  0
 11 51  1  0
 11 52  1  0
 12 53  1  0
 13 54  1  0
 14 55  1  0
 14 56  1  0
 15 57  1  0
 19 58  1  0
 23 59  1  0
M  END
