
     RDKit          3D

 59 62  0  0  0  0  0  0  0  0999 V2000
   -3.7734    3.6026    3.1983 C   0  0  0  0  0  0  0  0  0  0  0  0
   -0.2095   -1.5242    0.7708 C   0  0  0  0  0  0  0  0  0  0  0  0
    0.9955    2.7368   -1.0371 C   0  0  0  0  0  0  0  0  0  0  0  0
   -3.3691   -4.3588    0.4334 C   0  0  0  0  0  0  0  0  0  0  0  0
    0.4647   -0.5617   -2.8218 C   0  0  0  0  0  0  0  0  0  0  0  0
    5.4562    0.1365    0.6634 C   0  0  0  0  0  0  0  0  0  0  0  0
    0.0116   -1.5161   -1.7218 C   0  0  0  0  0  0  0  0  0  0  0  0
    6.1100   -0.3803    1.7562 C   0  0  0  0  0  0  0  0  0  0  0  0
   -3.0180   -0.2321    0.5325 C   0  0  0  0  0  0  0  0  0  0  0  0
    2.1113    0.8254    0.0998 C   0  0  0  0  0  0  0  0  0  0  0  0
    4.1500   -1.3364    1.7124 C   0  0  0  0  0  0  0  0  0  0  0  0
   -3.2510    3.1353    1.8751 C   0  0  0  0  0  0  0  0  0  0  0  0
    4.1715   -0.4844    0.6252 C   0  0  0  0  0  0  0  0  0  0  0  0
    1.3280    0.6286   -2.3545 C   0  0  0  0  0  0  0  0  0  0  0  0
   -2.2819   -0.9740   -0.6129 C   0  0  0  0  0  0  0  0  0  0  0  0
   -2.6188    1.2411    0.6549 C   0  0  0  0  0  0  0  0  0  0  0  0
    3.0712   -0.2631   -0.3701 C   0  0  0  0  0  0  0  0  0  0  0  0
   -1.0847    1.3263    0.6827 C   0  0  0  0  0  0  0  0  0  0  0  0
   -0.4251    0.7077   -0.5486 C   0  0  0  0  0  0  0  0  0  0  0  0
   -2.7921   -2.4083   -0.7287 C   0  0  0  0  0  0  0  0  0  0  0  0
    2.7975    0.3992   -2.6625 C   0  0  0  0  0  0  0  0  0  0  0  0
   -0.7084   -0.8329   -0.5250 C   0  0  0  0  0  0  0  0  0  0  0  0
    1.0128    1.1802   -0.9303 C   0  0  0  0  0  0  0  0  0  0  0  0
   -2.9015    3.8732    0.9644 O   0  0  0  0  0  0  0  0  0  0  0  0
   -0.4487    1.7994    1.6198 O   0  0  0  0  0  0  0  0  0  0  0  0
   -3.0471   -2.9422   -1.8002 O   0  0  0  0  0  0  0  0  0  0  0  0
    3.2256    0.4843   -3.8109 O   0  0  0  0  0  0  0  0  0  0  0  0
   -2.9058   -3.0077    0.4843 O   0  0  0  0  0  0  0  0  0  0  0  0
    5.3191   -1.2764    2.3993 O   0  0  0  0  0  0  0  0  0  0  0  0
   -3.2186    1.7734    1.8350 O   0  0  0  0  0  0  0  0  0  0  0  0
    3.6196    0.0878   -1.6449 O   0  0  0  0  0  0  0  0  0  0  0  0
   -3.0246    3.4206    3.9742 H   0  0  0  0  0  0  0  0  0  0  0  0
   -4.7060    3.0824    3.4354 H   0  0  0  0  0  0  0  0  0  0  0  0
   -3.9846    4.6756    3.1465 H   0  0  0  0  0  0  0  0  0  0  0  0
    0.8707   -1.4506    0.8931 H   0  0  0  0  0  0  0  0  0  0  0  0
   -0.6574   -1.1079    1.6771 H   0  0  0  0  0  0  0  0  0  0  0  0
   -0.4308   -2.5968    0.7556 H   0  0  0  0  0  0  0  0  0  0  0  0
    0.1882    3.0851   -1.6916 H   0  0  0  0  0  0  0  0  0  0  0  0
    1.9390    3.1118   -1.4513 H   0  0  0  0  0  0  0  0  0  0  0  0
    0.8581    3.2135   -0.0613 H   0  0  0  0  0  0  0  0  0  0  0  0
   -2.7338   -4.9660   -0.2187 H   0  0  0  0  0  0  0  0  0  0  0  0
   -3.3170   -4.7711    1.4446 H   0  0  0  0  0  0  0  0  0  0  0  0
   -4.4098   -4.3874    0.0999 H   0  0  0  0  0  0  0  0  0  0  0  0
    0.9893   -1.1367   -3.5948 H   0  0  0  0  0  0  0  0  0  0  0  0
   -0.4357   -0.1647   -3.3105 H   0  0  0  0  0  0  0  0  0  0  0  0
    5.8531    0.8655   -0.0293 H   0  0  0  0  0  0  0  0  0  0  0  0
    0.8883   -2.0742   -1.3778 H   0  0  0  0  0  0  0  0  0  0  0  0
   -0.6261   -2.2793   -2.1788 H   0  0  0  0  0  0  0  0  0  0  0  0
    7.0893   -0.2240    2.1878 H   0  0  0  0  0  0  0  0  0  0  0  0
   -4.1034   -0.2961    0.3760 H   0  0  0  0  0  0  0  0  0  0  0  0
   -2.8506   -0.7306    1.4960 H   0  0  0  0  0  0  0  0  0  0  0  0
    2.7171    1.7229    0.2960 H   0  0  0  0  0  0  0  0  0  0  0  0
    1.6838    0.5691    1.0741 H   0  0  0  0  0  0  0  0  0  0  0  0
    3.4124   -2.0176    2.1158 H   0  0  0  0  0  0  0  0  0  0  0  0
    1.0676    1.4334   -3.0613 H   0  0  0  0  0  0  0  0  0  0  0  0
   -2.6085   -0.4927   -1.5474 H   0  0  0  0  0  0  0  0  0  0  0  0
   -2.9837    1.7784   -0.2302 H   0  0  0  0  0  0  0  0  0  0  0  0
    2.5626   -1.2201   -0.4958 H   0  0  0  0  0  0  0  0  0  0  0  0
   -1.0388    1.1188   -1.3698 H   0  0  0  0  0  0  0  0  0  0  0  0
  1 12  1  0
  2 22  1  0
  3 23  1  0
  4 28  1  0
  5  7  1  0
  5 14  1  0
  6  8  2  0
  6 13  1  0
  7 22  1  0
  8 29  1  0
  9 15  1  0
  9 16  1  0
 10 17  1  0
 10 23  1  0
 11 13  2  0
 11 29  1  0
 12 24  2  0
 12 30  1  0
 13 17  1  0
 14 21  1  0
 14 23  1  0
 15 20  1  0
 15 22  1  0
 16 18  1  0
 16 30  1  0
 17 31  1  0
 18 19  1  0
 18 25  2  0
 19 22  1  0
 19 23  1  0
 20 26  2  0
 20 28  1  0
 21 27  2  0
 21 31  1  0
  1 32  1  0
  1 33  1  0
  1 34  1  0
  2 35  1  0
  2 36  1  0
  2 37  1  0
  3 38  1  0
  3 39  1  0
  3 40  1  0
  4 41  1  0
  4 42  1  0
  4 43  1  0
  5 44  1  0
  5 45  1  0
  6 46  1  0
  7 47  1  0
  7 48  1  0
  8 49  1  0
  9 50  1  0
  9 51  1  0
 10 52  1  0
 10 53  1  0
 11 54  1  0
 14 55  1  0
 15 56  1  0
 16 57  1  0
 17 58  1  0
 19 59  1  0
M  END
