
     RDKit          3D

 62 66  0  0  0  0  0  0  0  0999 V2000
   -2.5792   -0.2413    4.3281 C   0  0  0  0  0  0  0  0  0  0  0  0
   -1.6599    0.2223    3.3882 C   0  0  0  0  0  0  0  0  0  0  0  0
   -3.9326   -0.2594    4.0232 C   0  0  0  0  0  0  0  0  0  0  0  0
   -4.3661   -0.5422   -2.0047 C   0  0  0  0  0  0  0  0  0  0  0  0
   -6.7189    0.1687   -1.4875 C   0  0  0  0  0  0  0  0  0  0  0  0
    5.0847   -0.8756   -1.3441 C   0  0  0  0  0  0  0  0  0  0  0  0
    5.2734    0.1896    0.8470 C   0  0  0  0  0  0  0  0  0  0  0  0
    3.8093   -0.0027   -1.4116 C   0  0  0  0  0  0  0  0  0  0  0  0
    5.0137    1.5171    0.0912 C   0  0  0  0  0  0  0  0  0  0  0  0
   -4.9653   -1.7513   -2.7149 C   0  0  0  0  0  0  0  0  0  0  0  0
   -7.1842   -1.0822   -2.2236 C   0  0  0  0  0  0  0  0  0  0  0  0
   -4.8180    1.2754   -0.2604 C   0  0  0  0  0  0  0  0  0  0  0  0
   -2.3674    1.4691    0.0230 C   0  0  0  0  0  0  0  0  0  0  0  0
    7.1757   -1.0088   -0.0934 C   0  0  0  0  0  0  0  0  0  0  0  0
    2.9414    2.2800   -1.0441 C   0  0  0  0  0  0  0  0  0  0  0  0
   -5.3115   -0.0325   -0.9028 C   0  0  0  0  0  0  0  0  0  0  0  0
   -2.0925    0.6762    2.1188 C   0  0  0  0  0  0  0  0  0  0  0  0
   -1.4159    1.2016    0.9771 C   0  0  0  0  0  0  0  0  0  0  0  0
   -4.4020    0.1796    2.7768 C   0  0  0  0  0  0  0  0  0  0  0  0
    7.6243   -2.3151   -0.7282 C   0  0  0  0  0  0  0  0  0  0  0  0
    1.8203    1.9049   -0.1291 C   0  0  0  0  0  0  0  0  0  0  0  0
   -3.4719    0.6436    1.8186 C   0  0  0  0  0  0  0  0  0  0  0  0
    0.0223    1.4269    0.8317 C   0  0  0  0  0  0  0  0  0  0  0  0
   -6.1055    0.1178    2.5150 Cl  0  0  0  0  0  0  0  0  0  0  0  0
    7.7025   -2.5226   -1.9957 N   0  0  0  0  0  0  0  0  0  0  0  0
    0.5363    1.7843   -0.3927 N   0  0  0  0  0  0  0  0  0  0  0  0
    0.9300    1.3315    1.8138 N   0  0  0  0  0  0  0  0  0  0  0  0
    5.7019   -0.9434    0.0044 N   0  0  0  0  0  0  0  0  0  0  0  0
    4.1163    1.3952   -1.0692 N   0  0  0  0  0  0  0  0  0  0  0  0
   -3.5974    1.1195    0.5218 N   0  0  0  0  0  0  0  0  0  0  0  0
    7.9520   -3.2829    0.1363 O   0  0  0  0  0  0  0  0  0  0  0  0
   -6.2534   -1.4366   -3.2461 O   0  0  0  0  0  0  0  0  0  0  0  0
    2.1270    1.6628    1.1799 O   0  0  0  0  0  0  0  0  0  0  0  0
   -2.2308   -0.5847    5.3005 H   0  0  0  0  0  0  0  0  0  0  0  0
   -0.6024    0.2322    3.6451 H   0  0  0  0  0  0  0  0  0  0  0  0
   -4.6373   -0.6212    4.7695 H   0  0  0  0  0  0  0  0  0  0  0  0
   -3.3892   -0.8140   -1.5875 H   0  0  0  0  0  0  0  0  0  0  0  0
   -4.2048    0.2573   -2.7394 H   0  0  0  0  0  0  0  0  0  0  0  0
   -7.4304    0.4220   -0.6934 H   0  0  0  0  0  0  0  0  0  0  0  0
   -6.6978    1.0081   -2.1943 H   0  0  0  0  0  0  0  0  0  0  0  0
    5.7871   -0.4697   -2.0827 H   0  0  0  0  0  0  0  0  0  0  0  0
    4.8347   -1.8943   -1.6625 H   0  0  0  0  0  0  0  0  0  0  0  0
    4.3377   -0.1130    1.3407 H   0  0  0  0  0  0  0  0  0  0  0  0
    5.9854    0.3681    1.6674 H   0  0  0  0  0  0  0  0  0  0  0  0
    3.0512   -0.4289   -0.7425 H   0  0  0  0  0  0  0  0  0  0  0  0
    3.4067   -0.0469   -2.4307 H   0  0  0  0  0  0  0  0  0  0  0  0
    4.6592    2.2708    0.8054 H   0  0  0  0  0  0  0  0  0  0  0  0
    5.9785    1.8918   -0.2783 H   0  0  0  0  0  0  0  0  0  0  0  0
   -5.0477   -2.6108   -2.0395 H   0  0  0  0  0  0  0  0  0  0  0  0
   -4.3224   -2.0489   -3.5505 H   0  0  0  0  0  0  0  0  0  0  0  0
   -7.3119   -1.9257   -1.5346 H   0  0  0  0  0  0  0  0  0  0  0  0
   -8.1522   -0.8950   -2.7031 H   0  0  0  0  0  0  0  0  0  0  0  0
   -4.6189    2.0266   -1.0366 H   0  0  0  0  0  0  0  0  0  0  0  0
   -5.5720    1.7256    0.3933 H   0  0  0  0  0  0  0  0  0  0  0  0
   -2.2588    1.8749   -0.9750 H   0  0  0  0  0  0  0  0  0  0  0  0
    7.6285   -0.9715    0.9078 H   0  0  0  0  0  0  0  0  0  0  0  0
    7.5865   -0.1681   -0.6663 H   0  0  0  0  0  0  0  0  0  0  0  0
    2.5384    2.3303   -2.0662 H   0  0  0  0  0  0  0  0  0  0  0  0
    3.2594    3.3067   -0.8123 H   0  0  0  0  0  0  0  0  0  0  0  0
   -5.3711   -0.8158   -0.1364 H   0  0  0  0  0  0  0  0  0  0  0  0
    8.0202   -3.4691   -2.2083 H   0  0  0  0  0  0  0  0  0  0  0  0
    8.1850   -4.1063   -0.3155 H   0  0  0  0  0  0  0  0  0  0  0  0
  1  2  2  0
  1  3  1  0
  2 17  1  0
  3 19  2  0
  4 10  1  0
  4 16  1  0
  5 11  1  0
  5 16  1  0
  6  8  1  0
  6 28  1  0
  7  9  1  0
  7 28  1  0
  8 29  1  0
  9 29  1  0
 10 32  1  0
 11 32  1  0
 12 16  1  0
 12 30  1  0
 13 18  2  0
 13 30  1  0
 14 20  1  0
 14 28  1  0
 15 21  1  0
 15 29  1  0
 17 18  1  0
 17 22  2  0
 18 23  1  0
 19 22  1  0
 19 24  1  0
 20 25  2  3
 20 31  1  0
 21 26  2  0
 21 33  1  0
 22 30  1  0
 23 26  1  0
 23 27  2  0
 27 33  1  0
  1 34  1  0
  2 35  1  0
  3 36  1  0
  4 37  1  0
  4 38  1  0
  5 39  1  0
  5 40  1  0
  6 41  1  0
  6 42  1  0
  7 43  1  0
  7 44  1  0
  8 45  1  0
  8 46  1  0
  9 47  1  0
  9 48  1  0
 10 49  1  0
 10 50  1  0
 11 51  1  0
 11 52  1  0
 12 53  1  0
 12 54  1  0
 13 55  1  0
 14 56  1  0
 14 57  1  0
 15 58  1  0
 15 59  1  0
 16 60  1  0
 25 61  1  0
 31 62  1  0
M  END
