
     RDKit          3D

 56 59  0  0  0  0  0  0  0  0999 V2000
   -5.0747    2.6296    2.8764 C   0  0  0  0  0  0  0  0  0  0  0  0
   -3.5904   -1.2229   -3.4305 C   0  0  0  0  0  0  0  0  0  0  0  0
   -4.2180    3.4779    2.1850 C   0  0  0  0  0  0  0  0  0  0  0  0
   -2.8782   -0.0422   -3.6001 C   0  0  0  0  0  0  0  0  0  0  0  0
    0.0131    1.2309   -0.1463 C   0  0  0  0  0  0  0  0  0  0  0  0
   -5.0796    1.2631    2.5896 C   0  0  0  0  0  0  0  0  0  0  0  0
   -3.9521   -1.6371   -2.1474 C   0  0  0  0  0  0  0  0  0  0  0  0
   -3.3719    2.9559    1.2077 C   0  0  0  0  0  0  0  0  0  0  0  0
   -2.5264    0.7167   -2.4848 C   0  0  0  0  0  0  0  0  0  0  0  0
   -4.2742   -0.7366    1.4155 C   0  0  0  0  0  0  0  0  0  0  0  0
   -4.0051   -1.4229    0.2960 C   0  0  0  0  0  0  0  0  0  0  0  0
    1.3171    0.8546    0.5682 C   0  0  0  0  0  0  0  0  0  0  0  0
   -1.2231    0.6168    0.5224 C   0  0  0  0  0  0  0  0  0  0  0  0
    1.8303   -1.2380   -0.6315 C   0  0  0  0  0  0  0  0  0  0  0  0
    2.6844   -0.8935    1.5731 C   0  0  0  0  0  0  0  0  0  0  0  0
    3.2153   -0.9052   -1.2366 C   0  0  0  0  0  0  0  0  0  0  0  0
    4.0840   -0.5607    0.9975 C   0  0  0  0  0  0  0  0  0  0  0  0
    5.6155   -0.7859   -0.9097 C   0  0  0  0  0  0  0  0  0  0  0  0
    6.8642   -1.3154   -0.1815 C   0  0  0  0  0  0  0  0  0  0  0  0
   -4.2396    0.7216    1.5982 C   0  0  0  0  0  0  0  0  0  0  0  0
   -3.6156   -0.8756   -1.0122 C   0  0  0  0  0  0  0  0  0  0  0  0
   -3.3691    1.5808    0.9001 C   0  0  0  0  0  0  0  0  0  0  0  0
   -2.8773    0.3124   -1.1812 C   0  0  0  0  0  0  0  0  0  0  0  0
    1.5507   -0.5934    0.6710 N   0  0  0  0  0  0  0  0  0  0  0  0
    4.3284   -1.1943   -0.3108 N   0  0  0  0  0  0  0  0  0  0  0  0
   -2.4585    1.1581   -0.1118 N   0  0  0  0  0  0  0  0  0  0  0  0
    6.9857   -2.7255   -0.3403 O   0  0  0  0  0  0  0  0  0  0  0  0
   -5.7393    3.0278    3.6386 H   0  0  0  0  0  0  0  0  0  0  0  0
   -3.8677   -1.8219   -4.2938 H   0  0  0  0  0  0  0  0  0  0  0  0
   -4.2111    4.5429    2.3986 H   0  0  0  0  0  0  0  0  0  0  0  0
   -2.5983    0.2915   -4.5954 H   0  0  0  0  0  0  0  0  0  0  0  0
   -0.0801    2.3251   -0.1347 H   0  0  0  0  0  0  0  0  0  0  0  0
    0.0625    0.9473   -1.2030 H   0  0  0  0  0  0  0  0  0  0  0  0
   -5.7566    0.6183    3.1466 H   0  0  0  0  0  0  0  0  0  0  0  0
   -4.5096   -2.5649   -2.0394 H   0  0  0  0  0  0  0  0  0  0  0  0
   -2.7101    3.6238    0.6617 H   0  0  0  0  0  0  0  0  0  0  0  0
   -1.9754    1.6443   -2.6233 H   0  0  0  0  0  0  0  0  0  0  0  0
   -4.5707   -1.3055    2.2946 H   0  0  0  0  0  0  0  0  0  0  0  0
   -4.0997   -2.5064    0.3351 H   0  0  0  0  0  0  0  0  0  0  0  0
    2.1493    1.3670    0.0720 H   0  0  0  0  0  0  0  0  0  0  0  0
    1.2601    1.2764    1.5807 H   0  0  0  0  0  0  0  0  0  0  0  0
   -1.1854   -0.4791    0.4724 H   0  0  0  0  0  0  0  0  0  0  0  0
   -1.1836    0.8730    1.5911 H   0  0  0  0  0  0  0  0  0  0  0  0
    1.7679   -2.3261   -0.4874 H   0  0  0  0  0  0  0  0  0  0  0  0
    1.0462   -1.0068   -1.3609 H   0  0  0  0  0  0  0  0  0  0  0  0
    2.6513   -1.9655    1.8128 H   0  0  0  0  0  0  0  0  0  0  0  0
    2.5503   -0.3778    2.5325 H   0  0  0  0  0  0  0  0  0  0  0  0
    3.3368   -1.5076   -2.1454 H   0  0  0  0  0  0  0  0  0  0  0  0
    3.2355    0.1482   -1.5447 H   0  0  0  0  0  0  0  0  0  0  0  0
    4.8234   -0.9123    1.7253 H   0  0  0  0  0  0  0  0  0  0  0  0
    4.1952    0.5291    0.9236 H   0  0  0  0  0  0  0  0  0  0  0  0
    5.6711    0.3085   -0.9691 H   0  0  0  0  0  0  0  0  0  0  0  0
    5.6592   -1.1720   -1.9364 H   0  0  0  0  0  0  0  0  0  0  0  0
    6.8538   -1.0749    0.8847 H   0  0  0  0  0  0  0  0  0  0  0  0
    7.7566   -0.8573   -0.6207 H   0  0  0  0  0  0  0  0  0  0  0  0
    7.7334   -3.0139    0.2082 H   0  0  0  0  0  0  0  0  0  0  0  0
  1  3  2  0
  1  6  1  0
  2  4  2  0
  2  7  1  0
  3  8  1  0
  4  9  1  0
  5 12  1  0
  5 13  1  0
  6 20  2  0
  7 21  2  0
  8 22  2  0
  9 23  2  0
 10 11  2  0
 10 20  1  0
 11 21  1  0
 12 24  1  0
 13 26  1  0
 14 16  1  0
 14 24  1  0
 15 17  1  0
 15 24  1  0
 16 25  1  0
 17 25  1  0
 18 19  1  0
 18 25  1  0
 19 27  1  0
 20 22  1  0
 21 23  1  0
 22 26  1  0
 23 26  1  0
  1 28  1  0
  2 29  1  0
  3 30  1  0
  4 31  1  0
  5 32  1  0
  5 33  1  0
  6 34  1  0
  7 35  1  0
  8 36  1  0
  9 37  1  0
 10 38  1  0
 11 39  1  0
 12 40  1  0
 12 41  1  0
 13 42  1  0
 13 43  1  0
 14 44  1  0
 14 45  1  0
 15 46  1  0
 15 47  1  0
 16 48  1  0
 16 49  1  0
 17 50  1  0
 17 51  1  0
 18 52  1  0
 18 53  1  0
 19 54  1  0
 19 55  1  0
 27 56  1  0
M  END
