
     RDKit          3D

 60 62  0  0  0  0  0  0  0  0999 V2000
   -0.9122   -3.9442   -0.8303 C   0  0  0  0  0  0  0  0  0  0  0  0
   -3.9316   -1.0048   -2.0387 C   0  0  0  0  0  0  0  0  0  0  0  0
    6.1076   -2.9151   -0.5529 C   0  0  0  0  0  0  0  0  0  0  0  0
    4.2822   -2.0501   -2.0286 C   0  0  0  0  0  0  0  0  0  0  0  0
   -0.9619   -2.5517   -0.2075 C   0  0  0  0  0  0  0  0  0  0  0  0
   -3.1579   -1.8878   -1.0634 C   0  0  0  0  0  0  0  0  0  0  0  0
    2.0380    0.6510    1.1941 C   0  0  0  0  0  0  0  0  0  0  0  0
    1.3572   -1.2142    2.5567 C   0  0  0  0  0  0  0  0  0  0  0  0
   -3.3275    4.3536   -0.6398 C   0  0  0  0  0  0  0  0  0  0  0  0
    2.9705   -0.1626    0.5394 C   0  0  0  0  0  0  0  0  0  0  0  0
    2.2967   -2.0197    1.9080 C   0  0  0  0  0  0  0  0  0  0  0  0
   -3.0667    3.0147   -0.3246 C   0  0  0  0  0  0  0  0  0  0  0  0
   -1.4129   -0.1924   -0.5851 C   0  0  0  0  0  0  0  0  0  0  0  0
   -1.9529    0.2554    0.7857 C   0  0  0  0  0  0  0  0  0  0  0  0
    0.2086    1.0004    2.9277 C   0  0  0  0  0  0  0  0  0  0  0  0
   -1.5884    5.1204    0.9025 C   0  0  0  0  0  0  0  0  0  0  0  0
    4.9090   -1.9723   -0.6396 C   0  0  0  0  0  0  0  0  0  0  0  0
    1.2042    0.1297    2.1939 C   0  0  0  0  0  0  0  0  0  0  0  0
   -2.5970    5.3875   -0.0348 C   0  0  0  0  0  0  0  0  0  0  0  0
    3.1057   -1.5031    0.8939 C   0  0  0  0  0  0  0  0  0  0  0  0
   -1.3280    3.7804    1.2201 C   0  0  0  0  0  0  0  0  0  0  0  0
   -2.0541    2.7632    0.6100 C   0  0  0  0  0  0  0  0  0  0  0  0
   -0.5598    1.9566    2.0621 C   0  0  0  0  0  0  0  0  0  0  0  0
   -0.4166    3.2678    2.1000 N   0  0  0  0  0  0  0  0  0  0  0  0
   -1.7220   -1.5760   -1.0071 N   0  0  0  0  0  0  0  0  0  0  0  0
   -1.5260    1.6024    1.1400 N   0  0  0  0  0  0  0  0  0  0  0  0
   -2.8939    6.7818   -0.3867 N   0  0  0  0  0  4  0  0  0  0  0  0
   -2.2088    7.6708    0.1383 O   0  0  0  0  0  1  0  0  0  0  0  0
   -3.8143    6.9888   -1.1906 O   0  0  0  0  0  0  0  0  0  0  0  0
    3.9673   -2.4107    0.3453 O   0  0  0  0  0  0  0  0  0  0  0  0
   -1.8855   -4.4430   -0.7988 H   0  0  0  0  0  0  0  0  0  0  0  0
   -0.2078   -4.5719   -0.2756 H   0  0  0  0  0  0  0  0  0  0  0  0
   -0.5733   -3.9020   -1.8713 H   0  0  0  0  0  0  0  0  0  0  0  0
   -3.4689   -1.0136   -3.0319 H   0  0  0  0  0  0  0  0  0  0  0  0
   -4.9569   -1.3760   -2.1435 H   0  0  0  0  0  0  0  0  0  0  0  0
   -3.9948    0.0294   -1.6923 H   0  0  0  0  0  0  0  0  0  0  0  0
    5.8127   -3.9517   -0.7587 H   0  0  0  0  0  0  0  0  0  0  0  0
    6.5284   -2.9023    0.4593 H   0  0  0  0  0  0  0  0  0  0  0  0
    6.8929   -2.6251   -1.2590 H   0  0  0  0  0  0  0  0  0  0  0  0
    3.3991   -1.4076   -2.1027 H   0  0  0  0  0  0  0  0  0  0  0  0
    4.9957   -1.7446   -2.7998 H   0  0  0  0  0  0  0  0  0  0  0  0
    3.9449   -3.0685   -2.2490 H   0  0  0  0  0  0  0  0  0  0  0  0
   -1.3568   -2.6219    0.8135 H   0  0  0  0  0  0  0  0  0  0  0  0
    0.0786   -2.2150   -0.1319 H   0  0  0  0  0  0  0  0  0  0  0  0
   -3.2993   -2.9147   -1.4145 H   0  0  0  0  0  0  0  0  0  0  0  0
   -3.6186   -1.8320   -0.0702 H   0  0  0  0  0  0  0  0  0  0  0  0
    1.9699    1.7031    0.9143 H   0  0  0  0  0  0  0  0  0  0  0  0
    0.7541   -1.6476    3.3512 H   0  0  0  0  0  0  0  0  0  0  0  0
   -4.1095    4.5731   -1.3656 H   0  0  0  0  0  0  0  0  0  0  0  0
    3.5701    0.2905   -0.2425 H   0  0  0  0  0  0  0  0  0  0  0  0
    2.4026   -3.0628    2.1979 H   0  0  0  0  0  0  0  0  0  0  0  0
   -3.6318    2.2157   -0.7924 H   0  0  0  0  0  0  0  0  0  0  0  0
   -0.3249   -0.0533   -0.6094 H   0  0  0  0  0  0  0  0  0  0  0  0
   -1.7728    0.4927   -1.3612 H   0  0  0  0  0  0  0  0  0  0  0  0
   -1.6312   -0.4240    1.5791 H   0  0  0  0  0  0  0  0  0  0  0  0
   -3.0487    0.2614    0.7983 H   0  0  0  0  0  0  0  0  0  0  0  0
   -0.5084    0.3790    3.4782 H   0  0  0  0  0  0  0  0  0  0  0  0
    0.7614    1.5713    3.6845 H   0  0  0  0  0  0  0  0  0  0  0  0
   -1.0147    5.9038    1.3854 H   0  0  0  0  0  0  0  0  0  0  0  0
    5.2792   -0.9626   -0.4285 H   0  0  0  0  0  0  0  0  0  0  0  0
  1  5  1  0
  2  6  1  0
  3 17  1  0
  4 17  1  0
  5 25  1  0
  6 25  1  0
  7 10  2  0
  7 18  1  0
  8 11  1  0
  8 18  2  0
  9 12  2  0
  9 19  1  0
 10 20  1  0
 11 20  2  0
 12 22  1  0
 13 14  1  0
 13 25  1  0
 14 26  1  0
 15 18  1  0
 15 23  1  0
 16 19  2  0
 16 21  1  0
 17 30  1  0
 19 27  1  0
 20 30  1  0
 21 22  2  0
 21 24  1  0
 22 26  1  0
 23 24  2  0
 23 26  1  0
 27 28  1  0
 27 29  2  0
  1 31  1  0
  1 32  1  0
  1 33  1  0
  2 34  1  0
  2 35  1  0
  2 36  1  0
  3 37  1  0
  3 38  1  0
  3 39  1  0
  4 40  1  0
  4 41  1  0
  4 42  1  0
  5 43  1  0
  5 44  1  0
  6 45  1  0
  6 46  1  0
  7 47  1  0
  8 48  1  0
  9 49  1  0
 10 50  1  0
 11 51  1  0
 12 52  1  0
 13 53  1  0
 13 54  1  0
 14 55  1  0
 14 56  1  0
 15 57  1  0
 15 58  1  0
 16 59  1  0
 17 60  1  0
M  CHG  2  27   1  28  -1
M  END
