
     RDKit          3D

 60 62  0  0  0  0  0  0  0  0999 V2000
   -2.5152   -3.9708    0.6649 C   0  0  0  0  0  0  0  0  0  0  0  0
   -4.1863   -1.1460   -2.2872 C   0  0  0  0  0  0  0  0  0  0  0  0
    5.9397   -2.9522   -0.9666 C   0  0  0  0  0  0  0  0  0  0  0  0
    5.6790   -3.2235    1.5059 C   0  0  0  0  0  0  0  0  0  0  0  0
   -2.0349   -2.5277    0.5491 C   0  0  0  0  0  0  0  0  0  0  0  0
   -3.0993   -1.9407   -1.5687 C   0  0  0  0  0  0  0  0  0  0  0  0
    1.5074   -0.8834    1.9044 C   0  0  0  0  0  0  0  0  0  0  0  0
    2.3500    1.2261    1.1035 C   0  0  0  0  0  0  0  0  0  0  0  0
   -2.7325    4.4291   -2.0235 C   0  0  0  0  0  0  0  0  0  0  0  0
    2.6673   -1.5234    1.4507 C   0  0  0  0  0  0  0  0  0  0  0  0
    3.5058    0.5839    0.6529 C   0  0  0  0  0  0  0  0  0  0  0  0
   -2.4527    3.0959   -1.6920 C   0  0  0  0  0  0  0  0  0  0  0  0
   -2.7519   -0.2286    0.1849 C   0  0  0  0  0  0  0  0  0  0  0  0
   -1.4591    0.3791   -0.3793 C   0  0  0  0  0  0  0  0  0  0  0  0
    0.0680    1.1732    2.2160 C   0  0  0  0  0  0  0  0  0  0  0  0
   -1.5481    5.2402   -0.0792 C   0  0  0  0  0  0  0  0  0  0  0  0
    5.0238   -2.7025    0.2297 C   0  0  0  0  0  0  0  0  0  0  0  0
    1.3256    0.4945    1.7163 C   0  0  0  0  0  0  0  0  0  0  0  0
   -2.2481    5.4999   -1.2646 C   0  0  0  0  0  0  0  0  0  0  0  0
    3.6674   -0.7940    0.8107 C   0  0  0  0  0  0  0  0  0  0  0  0
   -1.2515    3.9135    0.2712 C   0  0  0  0  0  0  0  0  0  0  0  0
   -1.6975    2.8740   -0.5358 C   0  0  0  0  0  0  0  0  0  0  0  0
   -0.5622    2.1172    1.2337 C   0  0  0  0  0  0  0  0  0  0  0  0
   -2.6482    6.8097   -1.5689 N   0  0  0  0  0  0  0  0  0  0  0  0
   -0.5604    3.4322    1.3531 N   0  0  0  0  0  0  0  0  0  0  0  0
   -3.0064   -1.6513   -0.1282 N   0  0  0  0  0  0  0  0  0  0  0  0
   -1.2448    1.7362    0.0952 N   0  0  0  0  0  0  0  0  0  0  0  0
    4.8438   -1.2856    0.3207 O   0  0  0  0  0  0  0  0  0  0  0  0
   -3.5099   -4.0208    1.1190 H   0  0  0  0  0  0  0  0  0  0  0  0
   -2.5502   -4.4720   -0.3060 H   0  0  0  0  0  0  0  0  0  0  0  0
   -1.8293   -4.5402    1.3009 H   0  0  0  0  0  0  0  0  0  0  0  0
   -5.1545   -1.2618   -1.7894 H   0  0  0  0  0  0  0  0  0  0  0  0
   -4.2930   -1.5089   -3.3148 H   0  0  0  0  0  0  0  0  0  0  0  0
   -3.9465   -0.0803   -2.3427 H   0  0  0  0  0  0  0  0  0  0  0  0
    6.1341   -4.0207   -1.1027 H   0  0  0  0  0  0  0  0  0  0  0  0
    6.8968   -2.4325   -0.8463 H   0  0  0  0  0  0  0  0  0  0  0  0
    5.4828   -2.5614   -1.8825 H   0  0  0  0  0  0  0  0  0  0  0  0
    5.8675   -4.3000    1.4421 H   0  0  0  0  0  0  0  0  0  0  0  0
    5.0483   -3.0364    2.3805 H   0  0  0  0  0  0  0  0  0  0  0  0
    6.6302   -2.7117    1.6935 H   0  0  0  0  0  0  0  0  0  0  0  0
   -1.8758   -2.1707    1.5745 H   0  0  0  0  0  0  0  0  0  0  0  0
   -1.0591   -2.5042    0.0497 H   0  0  0  0  0  0  0  0  0  0  0  0
   -2.1369   -1.7785   -2.0692 H   0  0  0  0  0  0  0  0  0  0  0  0
   -3.3516   -2.9972   -1.7121 H   0  0  0  0  0  0  0  0  0  0  0  0
    0.7468   -1.4746    2.4104 H   0  0  0  0  0  0  0  0  0  0  0  0
    2.2560    2.3032    0.9703 H   0  0  0  0  0  0  0  0  0  0  0  0
   -3.3457    4.6259   -2.9004 H   0  0  0  0  0  0  0  0  0  0  0  0
    2.7613   -2.5889    1.6295 H   0  0  0  0  0  0  0  0  0  0  0  0
    4.2889    1.1665    0.1732 H   0  0  0  0  0  0  0  0  0  0  0  0
   -2.8258    2.2833   -2.3047 H   0  0  0  0  0  0  0  0  0  0  0  0
   -3.6095    0.3708   -0.1450 H   0  0  0  0  0  0  0  0  0  0  0  0
   -2.7641   -0.1117    1.2769 H   0  0  0  0  0  0  0  0  0  0  0  0
   -0.5838   -0.2134   -0.1067 H   0  0  0  0  0  0  0  0  0  0  0  0
   -1.4815    0.4140   -1.4738 H   0  0  0  0  0  0  0  0  0  0  0  0
   -0.6767    0.4230    2.5087 H   0  0  0  0  0  0  0  0  0  0  0  0
    0.3232    1.7227    3.1308 H   0  0  0  0  0  0  0  0  0  0  0  0
   -1.2237    6.0419    0.5737 H   0  0  0  0  0  0  0  0  0  0  0  0
    4.0801   -3.2226    0.0290 H   0  0  0  0  0  0  0  0  0  0  0  0
   -2.0352    7.5209   -1.1815 H   0  0  0  0  0  0  0  0  0  0  0  0
   -2.8424    6.9613   -2.5534 H   0  0  0  0  0  0  0  0  0  0  0  0
  1  5  1  0
  2  6  1  0
  3 17  1  0
  4 17  1  0
  5 26  1  0
  6 26  1  0
  7 10  2  0
  7 18  1  0
  8 11  1  0
  8 18  2  0
  9 12  2  0
  9 19  1  0
 10 20  1  0
 11 20  2  0
 12 22  1  0
 13 14  1  0
 13 26  1  0
 14 27  1  0
 15 18  1  0
 15 23  1  0
 16 19  2  0
 16 21  1  0
 17 28  1  0
 19 24  1  0
 20 28  1  0
 21 22  2  0
 21 25  1  0
 22 27  1  0
 23 25  2  0
 23 27  1  0
  1 29  1  0
  1 30  1  0
  1 31  1  0
  2 32  1  0
  2 33  1  0
  2 34  1  0
  3 35  1  0
  3 36  1  0
  3 37  1  0
  4 38  1  0
  4 39  1  0
  4 40  1  0
  5 41  1  0
  5 42  1  0
  6 43  1  0
  6 44  1  0
  7 45  1  0
  8 46  1  0
  9 47  1  0
 10 48  1  0
 11 49  1  0
 12 50  1  0
 13 51  1  0
 13 52  1  0
 14 53  1  0
 14 54  1  0
 15 55  1  0
 15 56  1  0
 16 57  1  0
 17 58  1  0
 24 59  1  0
 24 60  1  0
M  END
