
     RDKit          3D

 62 62  0  0  0  0  0  0  0  0999 V2000
   10.4828    2.4819    1.0247 C   0  0  0  0  0  0  0  0  0  0  0  0
    9.7766    1.1491    1.2139 C   0  0  0  0  0  0  0  0  0  0  0  0
    8.2584    1.3011    1.1243 C   0  0  0  0  0  0  0  0  0  0  0  0
    7.5528   -0.0444    1.3097 C   0  0  0  0  0  0  0  0  0  0  0  0
    6.0335    0.1079    1.2188 C   0  0  0  0  0  0  0  0  0  0  0  0
    5.3414   -1.2119    1.4095 C   0  0  0  0  0  0  0  0  0  0  0  0
    4.7253   -1.9467    0.4684 C   0  0  0  0  0  0  0  0  0  0  0  0
    4.6324   -1.6567   -1.0034 C   0  0  0  0  0  0  0  0  0  0  0  0
    3.2694   -1.2385   -1.4900 C   0  0  0  0  0  0  0  0  0  0  0  0
    2.1715   -0.9904   -0.7545 C   0  0  0  0  0  0  0  0  0  0  0  0
    0.8478   -0.5725   -1.3275 C   0  0  0  0  0  0  0  0  0  0  0  0
   -0.2028   -1.6113   -1.0617 C   0  0  0  0  0  0  0  0  0  0  0  0
   -1.2624   -1.5164   -0.2399 C   0  0  0  0  0  0  0  0  0  0  0  0
   -1.6329   -0.3646    0.6511 C   0  0  0  0  0  0  0  0  0  0  0  0
   -2.8662    0.3951    0.2353 C   0  0  0  0  0  0  0  0  0  0  0  0
   -3.5987    0.2327   -0.8800 C   0  0  0  0  0  0  0  0  0  0  0  0
   -4.8182    1.0476   -1.2073 C   0  0  0  0  0  0  0  0  0  0  0  0
   -6.0677    0.1688   -1.2703 C   0  0  0  0  0  0  0  0  0  0  0  0
   -7.3066    0.9928   -1.6090 C   0  0  0  0  0  0  0  0  0  0  0  0
   -8.4581   -0.1895    1.6165 C   0  0  0  0  0  0  0  0  0  0  0  0
   -9.9547   -0.1497    1.7054 C   0  0  0  0  0  0  0  0  0  0  0  0
   -9.2516    0.5220    0.5588 C   0  0  0  0  0  0  0  0  0  0  0  0
   -8.5221    0.1175   -1.6567 C   0  0  0  0  0  0  0  0  0  0  0  0
   -9.3955   -0.1303   -0.7429 N   0  0  0  0  0  0  0  0  0  0  0  0
   -8.6899   -0.5089   -2.8296 O   0  0  0  0  0  0  0  0  0  0  0  0
   10.2536    2.9120    0.0444 H   0  0  0  0  0  0  0  0  0  0  0  0
   11.5671    2.3486    1.0916 H   0  0  0  0  0  0  0  0  0  0  0  0
   10.1803    3.1993    1.7945 H   0  0  0  0  0  0  0  0  0  0  0  0
   10.1261    0.4456    0.4494 H   0  0  0  0  0  0  0  0  0  0  0  0
   10.0522    0.7315    2.1892 H   0  0  0  0  0  0  0  0  0  0  0  0
    7.9885    1.7259    0.1494 H   0  0  0  0  0  0  0  0  0  0  0  0
    7.9139    2.0060    1.8907 H   0  0  0  0  0  0  0  0  0  0  0  0
    7.9004   -0.7478    0.5423 H   0  0  0  0  0  0  0  0  0  0  0  0
    7.8269   -0.4707    2.2833 H   0  0  0  0  0  0  0  0  0  0  0  0
    5.7593    0.5715    0.2656 H   0  0  0  0  0  0  0  0  0  0  0  0
    5.6826    0.7932    2.0003 H   0  0  0  0  0  0  0  0  0  0  0  0
    5.3285   -1.5859    2.4330 H   0  0  0  0  0  0  0  0  0  0  0  0
    4.2497   -2.8753    0.7825 H   0  0  0  0  0  0  0  0  0  0  0  0
    5.3581   -0.8955   -1.3079 H   0  0  0  0  0  0  0  0  0  0  0  0
    4.9183   -2.5709   -1.5388 H   0  0  0  0  0  0  0  0  0  0  0  0
    3.2012   -1.1295   -2.5719 H   0  0  0  0  0  0  0  0  0  0  0  0
    2.2079   -1.0765    0.3296 H   0  0  0  0  0  0  0  0  0  0  0  0
    0.5769    0.4027   -0.9115 H   0  0  0  0  0  0  0  0  0  0  0  0
    0.9190   -0.4271   -2.4125 H   0  0  0  0  0  0  0  0  0  0  0  0
   -0.0819   -2.5375   -1.6230 H   0  0  0  0  0  0  0  0  0  0  0  0
   -1.9333   -2.3731   -0.1823 H   0  0  0  0  0  0  0  0  0  0  0  0
   -1.8058   -0.7674    1.6569 H   0  0  0  0  0  0  0  0  0  0  0  0
   -0.8077    0.3471    0.7529 H   0  0  0  0  0  0  0  0  0  0  0  0
   -3.1700    1.1629    0.9458 H   0  0  0  0  0  0  0  0  0  0  0  0
   -3.3155   -0.5157   -1.6174 H   0  0  0  0  0  0  0  0  0  0  0  0
   -4.6586    1.5392   -2.1747 H   0  0  0  0  0  0  0  0  0  0  0  0
   -4.9631    1.8436   -0.4664 H   0  0  0  0  0  0  0  0  0  0  0  0
   -6.2107   -0.3426   -0.3103 H   0  0  0  0  0  0  0  0  0  0  0  0
   -5.9337   -0.6203   -2.0220 H   0  0  0  0  0  0  0  0  0  0  0  0
   -7.4498    1.7975   -0.8817 H   0  0  0  0  0  0  0  0  0  0  0  0
   -7.1877    1.4729   -2.5879 H   0  0  0  0  0  0  0  0  0  0  0  0
   -7.8893    0.4149    2.3137 H   0  0  0  0  0  0  0  0  0  0  0  0
   -7.9951   -1.1366    1.3650 H   0  0  0  0  0  0  0  0  0  0  0  0
  -10.5024   -1.0626    1.5011 H   0  0  0  0  0  0  0  0  0  0  0  0
  -10.4037    0.4800    2.4628 H   0  0  0  0  0  0  0  0  0  0  0  0
   -9.2754    1.6088    0.5654 H   0  0  0  0  0  0  0  0  0  0  0  0
   -9.4913   -1.0529   -2.7409 H   0  0  0  0  0  0  0  0  0  0  0  0
  1  2  1  0
  2  3  1  0
  3  4  1  0
  4  5  1  0
  5  6  1  0
  6  7  2  3
  7  8  1  0
  8  9  1  0
  9 10  2  3
 10 11  1  0
 11 12  1  0
 12 13  2  3
 13 14  1  0
 14 15  1  0
 15 16  2  3
 16 17  1  0
 17 18  1  0
 18 19  1  0
 19 23  1  0
 20 21  1  0
 20 22  1  0
 21 22  1  0
 22 24  1  0
 23 24  2  3
 23 25  1  0
  1 26  1  0
  1 27  1  0
  1 28  1  0
  2 29  1  0
  2 30  1  0
  3 31  1  0
  3 32  1  0
  4 33  1  0
  4 34  1  0
  5 35  1  0
  5 36  1  0
  6 37  1  0
  7 38  1  0
  8 39  1  0
  8 40  1  0
  9 41  1  0
 10 42  1  0
 11 43  1  0
 11 44  1  0
 12 45  1  0
 13 46  1  0
 14 47  1  0
 14 48  1  0
 15 49  1  0
 16 50  1  0
 17 51  1  0
 17 52  1  0
 18 53  1  0
 18 54  1  0
 19 55  1  0
 19 56  1  0
 20 57  1  0
 20 58  1  0
 21 59  1  0
 21 60  1  0
 22 61  1  0
 25 62  1  0
M  END
