
     RDKit          3D

 60 63  0  0  0  0  0  0  0  0999 V2000
   -8.7969    1.1540   -0.4563 C   0  0  0  0  0  0  0  0  0  0  0  0
    6.6833   -0.8468    0.4713 C   0  0  0  0  0  0  0  0  0  0  0  0
    6.3094    2.3349   -0.9198 C   0  0  0  0  0  0  0  0  0  0  0  0
    1.8860   -2.5272    1.5617 C   0  0  0  0  0  0  0  0  0  0  0  0
   -7.9393    0.4758    0.5998 C   0  0  0  0  0  0  0  0  0  0  0  0
    5.7261   -1.0726   -0.6895 C   0  0  0  0  0  0  0  0  0  0  0  0
    6.0149    1.1408   -1.8170 C   0  0  0  0  0  0  0  0  0  0  0  0
   -2.6923    1.0909   -2.2050 C   0  0  0  0  0  0  0  0  0  0  0  0
   -6.4652    0.4431    0.1885 C   0  0  0  0  0  0  0  0  0  0  0  0
   -1.3704    0.7725   -1.8985 C   0  0  0  0  0  0  0  0  0  0  0  0
   -3.7455    0.7839   -1.3298 C   0  0  0  0  0  0  0  0  0  0  0  0
    1.3547   -0.2979   -1.0371 C   0  0  0  0  0  0  0  0  0  0  0  0
   -0.7645   -1.3211    1.9519 C   0  0  0  0  0  0  0  0  0  0  0  0
    2.8372   -0.3690    0.9934 C   0  0  0  0  0  0  0  0  0  0  0  0
   -3.3434   -0.8908    1.8986 C   0  0  0  0  0  0  0  0  0  0  0  0
   -2.0634   -0.8264    1.4205 C   0  0  0  0  0  0  0  0  0  0  0  0
    2.7670   -0.5258   -0.5379 C   0  0  0  0  0  0  0  0  0  0  0  0
   -1.0590    0.1216   -0.7023 C   0  0  0  0  0  0  0  0  0  0  0  0
    0.2926   -0.2518   -0.2074 C   0  0  0  0  0  0  0  0  0  0  0  0
   -3.4505    0.1393   -0.1130 C   0  0  0  0  0  0  0  0  0  0  0  0
    0.4359   -0.5277    1.3191 C   0  0  0  0  0  0  0  0  0  0  0  0
   -5.6122   -0.2254    1.2318 C   0  0  0  0  0  0  0  0  0  0  0  0
   -2.1202   -0.1821    0.1724 C   0  0  0  0  0  0  0  0  0  0  0  0
    3.7504    0.4659   -1.1926 C   0  0  0  0  0  0  0  0  0  0  0  0
    1.7658   -1.0786    1.7223 N   0  0  0  0  0  0  0  0  0  0  0  0
    5.1168    0.1679   -1.1849 N   0  0  0  0  0  0  0  0  0  0  0  0
   -4.2193   -0.3003    0.9816 N   0  0  0  0  0  0  0  0  0  0  0  0
   -6.0489   -0.7035    2.2749 O   0  0  0  0  0  0  0  0  0  0  0  0
    3.3386    1.5117   -1.7067 O   0  0  0  0  0  0  0  0  0  0  0  0
   -8.4778    2.1889   -0.6155 H   0  0  0  0  0  0  0  0  0  0  0  0
   -8.7344    0.6239   -1.4120 H   0  0  0  0  0  0  0  0  0  0  0  0
   -9.8454    1.1663   -0.1425 H   0  0  0  0  0  0  0  0  0  0  0  0
    7.5575   -0.2666    0.1609 H   0  0  0  0  0  0  0  0  0  0  0  0
    7.0430   -1.8065    0.8557 H   0  0  0  0  0  0  0  0  0  0  0  0
    6.1946   -0.3093    1.2897 H   0  0  0  0  0  0  0  0  0  0  0  0
    5.3951    2.8794   -0.6640 H   0  0  0  0  0  0  0  0  0  0  0  0
    6.7807    2.0245    0.0172 H   0  0  0  0  0  0  0  0  0  0  0  0
    6.9861    3.0296   -1.4269 H   0  0  0  0  0  0  0  0  0  0  0  0
    1.2863   -3.0511    2.3128 H   0  0  0  0  0  0  0  0  0  0  0  0
    2.9184   -2.8522    1.7373 H   0  0  0  0  0  0  0  0  0  0  0  0
    1.5851   -2.8775    0.5688 H   0  0  0  0  0  0  0  0  0  0  0  0
   -8.0505    1.0078    1.5524 H   0  0  0  0  0  0  0  0  0  0  0  0
   -8.3057   -0.5451    0.7621 H   0  0  0  0  0  0  0  0  0  0  0  0
    4.9683   -1.7899   -0.3753 H   0  0  0  0  0  0  0  0  0  0  0  0
    6.2584   -1.5351   -1.5288 H   0  0  0  0  0  0  0  0  0  0  0  0
    6.9488    0.6413   -2.0981 H   0  0  0  0  0  0  0  0  0  0  0  0
    5.5544    1.4938   -2.7474 H   0  0  0  0  0  0  0  0  0  0  0  0
   -2.9109    1.6001   -3.1421 H   0  0  0  0  0  0  0  0  0  0  0  0
   -6.3799   -0.1173   -0.7480 H   0  0  0  0  0  0  0  0  0  0  0  0
   -6.1204    1.4738    0.0572 H   0  0  0  0  0  0  0  0  0  0  0  0
   -0.5887    1.0593   -2.5962 H   0  0  0  0  0  0  0  0  0  0  0  0
   -4.7483    1.0634   -1.6268 H   0  0  0  0  0  0  0  0  0  0  0  0
    1.2527   -0.1268   -2.1048 H   0  0  0  0  0  0  0  0  0  0  0  0
   -0.7354   -1.2294    3.0440 H   0  0  0  0  0  0  0  0  0  0  0  0
   -0.7077   -2.3868    1.7019 H   0  0  0  0  0  0  0  0  0  0  0  0
    2.7987    0.6961    1.2644 H   0  0  0  0  0  0  0  0  0  0  0  0
    3.8069   -0.7099    1.3718 H   0  0  0  0  0  0  0  0  0  0  0  0
   -3.7360   -1.3111    2.8168 H   0  0  0  0  0  0  0  0  0  0  0  0
    3.0280   -1.5405   -0.8545 H   0  0  0  0  0  0  0  0  0  0  0  0
    0.3901    0.4725    1.7803 H   0  0  0  0  0  0  0  0  0  0  0  0
  1  5  1  0
  2  6  1  0
  3  7  1  0
  4 25  1  0
  5  9  1  0
  6 26  1  0
  7 26  1  0
  8 10  2  0
  8 11  1  0
  9 22  1  0
 10 18  1  0
 11 20  2  0
 12 17  1  0
 12 19  2  0
 13 16  1  0
 13 21  1  0
 14 17  1  0
 14 25  1  0
 15 16  2  0
 15 27  1  0
 16 23  1  0
 17 24  1  0
 18 19  1  0
 18 23  2  0
 19 21  1  0
 20 23  1  0
 20 27  1  0
 21 25  1  0
 22 27  1  0
 22 28  2  0
 24 26  1  0
 24 29  2  0
  1 30  1  0
  1 31  1  0
  1 32  1  0
  2 33  1  0
  2 34  1  0
  2 35  1  0
  3 36  1  0
  3 37  1  0
  3 38  1  0
  4 39  1  0
  4 40  1  0
  4 41  1  0
  5 42  1  0
  5 43  1  0
  6 44  1  0
  6 45  1  0
  7 46  1  0
  7 47  1  0
  8 48  1  0
  9 49  1  0
  9 50  1  0
 10 51  1  0
 11 52  1  0
 12 53  1  0
 13 54  1  0
 13 55  1  0
 14 56  1  0
 14 57  1  0
 15 58  1  0
 17 59  1  0
 21 60  1  0
M  END
