
     RDKit          3D

 53 57  0  0  0  0  0  0  0  0999 V2000
    3.2316   -4.8035   -0.3041 C   0  0  0  0  0  0  0  0  0  0  0  0
    1.8942    4.7848    1.0486 C   0  0  0  0  0  0  0  0  0  0  0  0
    3.0341   -2.5060    0.7072 C   0  0  0  0  0  0  0  0  0  0  0  0
    2.0835   -2.8936   -1.4708 C   0  0  0  0  0  0  0  0  0  0  0  0
    2.5971   -1.1789    0.6638 C   0  0  0  0  0  0  0  0  0  0  0  0
    1.6446   -1.5677   -1.5138 C   0  0  0  0  0  0  0  0  0  0  0  0
   -4.8226   -1.4379    1.7714 C   0  0  0  0  0  0  0  0  0  0  0  0
   -3.8582   -2.1469   -0.3276 C   0  0  0  0  0  0  0  0  0  0  0  0
   -5.9357   -2.2508    1.5373 C   0  0  0  0  0  0  0  0  0  0  0  0
   -4.9718   -2.9612   -0.5600 C   0  0  0  0  0  0  0  0  0  0  0  0
    0.9731    3.5482   -1.5570 C   0  0  0  0  0  0  0  0  0  0  0  0
   -0.1848    3.3145   -0.5853 C   0  0  0  0  0  0  0  0  0  0  0  0
    2.5754    1.6802   -0.8992 C   0  0  0  0  0  0  0  0  0  0  0  0
   -1.4733   -0.2808    0.2669 C   0  0  0  0  0  0  0  0  0  0  0  0
    2.7892   -3.3714   -0.3628 C   0  0  0  0  0  0  0  0  0  0  0  0
    1.8853   -0.6945   -0.4416 C   0  0  0  0  0  0  0  0  0  0  0  0
   -3.7678   -1.3719    0.8419 C   0  0  0  0  0  0  0  0  0  0  0  0
   -5.9993   -3.0046    0.3737 C   0  0  0  0  0  0  0  0  0  0  0  0
    2.2259    3.1743   -0.7605 C   0  0  0  0  0  0  0  0  0  0  0  0
    1.3976    0.7477   -0.5201 C   0  0  0  0  0  0  0  0  0  0  0  0
   -2.6054   -0.5125    1.0957 C   0  0  0  0  0  0  0  0  0  0  0  0
    0.4812    2.8126    0.7057 C   0  0  0  0  0  0  0  0  0  0  0  0
   -0.6782    0.5922    0.9700 C   0  0  0  0  0  0  0  0  0  0  0  0
    0.6457    1.2613    0.7487 C   0  0  0  0  0  0  0  0  0  0  0  0
   -7.0648   -3.7838    0.1469 F   0  0  0  0  0  0  0  0  0  0  0  0
   -2.4881    0.2004    2.2287 N   0  0  0  0  0  0  0  0  0  0  0  0
    1.8467    3.3803    0.6466 N   0  0  0  0  0  0  0  0  0  0  0  0
   -1.2901    0.8732    2.1514 O   0  0  0  0  0  0  0  0  0  0  0  0
    4.0882   -4.9241    0.3675 H   0  0  0  0  0  0  0  0  0  0  0  0
    3.5435   -5.1523   -1.2936 H   0  0  0  0  0  0  0  0  0  0  0  0
    2.4124   -5.4348    0.0550 H   0  0  0  0  0  0  0  0  0  0  0  0
    1.5952    4.8843    2.0979 H   0  0  0  0  0  0  0  0  0  0  0  0
    2.9212    5.1599    0.9784 H   0  0  0  0  0  0  0  0  0  0  0  0
    1.2524    5.4401    0.4506 H   0  0  0  0  0  0  0  0  0  0  0  0
    3.5738   -2.8561    1.5845 H   0  0  0  0  0  0  0  0  0  0  0  0
    1.8750   -3.5509   -2.3118 H   0  0  0  0  0  0  0  0  0  0  0  0
    2.8284   -0.5306    1.5058 H   0  0  0  0  0  0  0  0  0  0  0  0
    1.1120   -1.2227   -2.3971 H   0  0  0  0  0  0  0  0  0  0  0  0
   -4.7854   -0.8555    2.6914 H   0  0  0  0  0  0  0  0  0  0  0  0
   -3.0690   -2.1343   -1.0742 H   0  0  0  0  0  0  0  0  0  0  0  0
   -6.7470   -2.2981    2.2569 H   0  0  0  0  0  0  0  0  0  0  0  0
   -5.0416   -3.5613   -1.4617 H   0  0  0  0  0  0  0  0  0  0  0  0
    0.9991    4.6055   -1.8462 H   0  0  0  0  0  0  0  0  0  0  0  0
    0.8623    2.9599   -2.4738 H   0  0  0  0  0  0  0  0  0  0  0  0
   -0.9219    2.6172   -0.9947 H   0  0  0  0  0  0  0  0  0  0  0  0
   -0.7034    4.2637   -0.4036 H   0  0  0  0  0  0  0  0  0  0  0  0
    3.4479    1.4646   -0.2671 H   0  0  0  0  0  0  0  0  0  0  0  0
    2.8878    1.4709   -1.9307 H   0  0  0  0  0  0  0  0  0  0  0  0
   -1.2631   -0.6999   -0.7048 H   0  0  0  0  0  0  0  0  0  0  0  0
    3.0953    3.7711   -1.0587 H   0  0  0  0  0  0  0  0  0  0  0  0
    0.6844    0.7908   -1.3559 H   0  0  0  0  0  0  0  0  0  0  0  0
   -0.0645    3.1522    1.5945 H   0  0  0  0  0  0  0  0  0  0  0  0
    1.2522    1.0365    1.6375 H   0  0  0  0  0  0  0  0  0  0  0  0
  1 15  1  0
  2 27  1  0
  3  5  2  0
  3 15  1  0
  4  6  1  0
  4 15  2  0
  5 16  1  0
  6 16  2  0
  7  9  2  0
  7 17  1  0
  8 10  1  0
  8 17  2  0
  9 18  1  0
 10 18  2  0
 11 12  1  0
 11 19  1  0
 12 22  1  0
 13 19  1  0
 13 20  1  0
 14 21  1  0
 14 23  2  0
 16 20  1  0
 17 21  1  0
 18 25  1  0
 19 27  1  0
 20 24  1  0
 21 26  2  0
 22 24  1  0
 22 27  1  0
 23 24  1  0
 23 28  1  0
 26 28  1  0
  1 29  1  0
  1 30  1  0
  1 31  1  0
  2 32  1  0
  2 33  1  0
  2 34  1  0
  3 35  1  0
  4 36  1  0
  5 37  1  0
  6 38  1  0
  7 39  1  0
  8 40  1  0
  9 41  1  0
 10 42  1  0
 11 43  1  0
 11 44  1  0
 12 45  1  0
 12 46  1  0
 13 47  1  0
 13 48  1  0
 14 49  1  0
 19 50  1  0
 20 51  1  0
 22 52  1  0
 24 53  1  0
M  END
