
     RDKit          3D

 53 58  0  0  0  0  0  0  0  0999 V2000
   -4.9305    2.3924   -0.8046 C   0  0  0  0  0  0  0  0  0  0  0  0
    7.4743   -0.2729    0.5148 C   0  0  0  0  0  0  0  0  0  0  0  0
    7.1092   -1.2725   -0.3858 C   0  0  0  0  0  0  0  0  0  0  0  0
    6.6003    0.7808    0.7781 C   0  0  0  0  0  0  0  0  0  0  0  0
    5.8699   -1.2184   -1.0272 C   0  0  0  0  0  0  0  0  0  0  0  0
    5.3612    0.8364    0.1382 C   0  0  0  0  0  0  0  0  0  0  0  0
   -0.4706    0.0901   -2.6302 C   0  0  0  0  0  0  0  0  0  0  0  0
   -3.4769   -1.8990    1.1523 C   0  0  0  0  0  0  0  0  0  0  0  0
   -2.7371   -2.3741    2.1885 C   0  0  0  0  0  0  0  0  0  0  0  0
    0.9090    0.0843   -2.2728 C   0  0  0  0  0  0  0  0  0  0  0  0
   -1.9286    1.4567    1.4232 C   0  0  0  0  0  0  0  0  0  0  0  0
   -3.1733    2.2086    0.8615 C   0  0  0  0  0  0  0  0  0  0  0  0
   -2.9396   -0.1291   -1.8599 C   0  0  0  0  0  0  0  0  0  0  0  0
    3.6461   -0.0870   -1.4705 C   0  0  0  0  0  0  0  0  0  0  0  0
    4.9833   -0.1624   -0.7723 C   0  0  0  0  0  0  0  0  0  0  0  0
   -1.4578    0.0600   -1.6500 C   0  0  0  0  0  0  0  0  0  0  0  0
   -3.2862   -0.4638    0.7126 C   0  0  0  0  0  0  0  0  0  0  0  0
   -3.7898    0.2276   -0.5898 C   0  0  0  0  0  0  0  0  0  0  0  0
   -1.4915   -1.6458    2.7187 C   0  0  0  0  0  0  0  0  0  0  0  0
    1.3334   -0.0213   -0.9333 C   0  0  0  0  0  0  0  0  0  0  0  0
   -1.0090    0.0691   -0.3533 C   0  0  0  0  0  0  0  0  0  0  0  0
    0.3356   -0.0603    0.0143 C   0  0  0  0  0  0  0  0  0  0  0  0
   -0.8951   -1.0079    1.4739 C   0  0  0  0  0  0  0  0  0  0  0  0
   -1.8522    0.0168    0.8736 C   0  0  0  0  0  0  0  0  0  0  0  0
   -3.6894    1.7194   -0.4336 N   0  0  0  0  0  0  0  0  0  0  0  0
   -0.6088   -2.6287    3.2485 O   0  0  0  0  0  0  0  0  0  0  0  0
    2.6142   -0.1407   -0.4898 O   0  0  0  0  0  0  0  0  0  0  0  0
    0.4261   -0.4243    1.3725 O   0  0  0  0  0  0  0  0  0  0  0  0
   -4.7977    3.4798   -0.8019 H   0  0  0  0  0  0  0  0  0  0  0  0
   -5.7490    2.1422   -0.1204 H   0  0  0  0  0  0  0  0  0  0  0  0
   -5.2312    2.1161   -1.8211 H   0  0  0  0  0  0  0  0  0  0  0  0
    8.4378   -0.3179    1.0157 H   0  0  0  0  0  0  0  0  0  0  0  0
    7.7887   -2.0972   -0.5866 H   0  0  0  0  0  0  0  0  0  0  0  0
    6.8800    1.5573    1.4854 H   0  0  0  0  0  0  0  0  0  0  0  0
    5.6003   -2.0100   -1.7225 H   0  0  0  0  0  0  0  0  0  0  0  0
    4.6813    1.6577    0.3580 H   0  0  0  0  0  0  0  0  0  0  0  0
   -0.7460    0.0947   -3.6825 H   0  0  0  0  0  0  0  0  0  0  0  0
   -4.3266   -2.4614    0.7763 H   0  0  0  0  0  0  0  0  0  0  0  0
   -2.9538   -3.3511    2.6138 H   0  0  0  0  0  0  0  0  0  0  0  0
    1.6268    0.1098   -3.0880 H   0  0  0  0  0  0  0  0  0  0  0  0
   -2.0128    1.4301    2.5168 H   0  0  0  0  0  0  0  0  0  0  0  0
   -1.0291    2.0429    1.1959 H   0  0  0  0  0  0  0  0  0  0  0  0
   -2.9105    3.2696    0.7676 H   0  0  0  0  0  0  0  0  0  0  0  0
   -3.9698    2.1656    1.6170 H   0  0  0  0  0  0  0  0  0  0  0  0
   -3.1144   -1.1829   -2.1091 H   0  0  0  0  0  0  0  0  0  0  0  0
   -3.2708    0.4715   -2.7153 H   0  0  0  0  0  0  0  0  0  0  0  0
    3.5417   -0.9277   -2.1670 H   0  0  0  0  0  0  0  0  0  0  0  0
    3.6038    0.8553   -2.0315 H   0  0  0  0  0  0  0  0  0  0  0  0
   -3.9081   -0.0086    1.5031 H   0  0  0  0  0  0  0  0  0  0  0  0
   -4.8298   -0.0760   -0.7665 H   0  0  0  0  0  0  0  0  0  0  0  0
   -1.7326   -0.9321    3.5113 H   0  0  0  0  0  0  0  0  0  0  0  0
   -0.7946   -1.9073    0.8209 H   0  0  0  0  0  0  0  0  0  0  0  0
    0.2902   -2.2541    3.1903 H   0  0  0  0  0  0  0  0  0  0  0  0
  1 25  1  0
  2  3  2  0
  2  4  1  0
  3  5  1  0
  4  6  2  0
  5 15  2  0
  6 15  1  0
  7 10  2  0
  7 16  1  0
  8  9  2  0
  8 17  1  0
  9 19  1  0
 10 20  1  0
 11 12  1  0
 11 24  1  0
 12 25  1  0
 13 16  1  0
 13 18  1  0
 14 15  1  0
 14 27  1  0
 16 21  2  0
 17 18  1  0
 17 24  1  0
 18 25  1  0
 19 23  1  0
 19 26  1  0
 20 22  2  0
 20 27  1  0
 21 22  1  0
 21 24  1  0
 22 28  1  0
 23 24  1  0
 23 28  1  0
  1 29  1  0
  1 30  1  0
  1 31  1  0
  2 32  1  0
  3 33  1  0
  4 34  1  0
  5 35  1  0
  6 36  1  0
  7 37  1  0
  8 38  1  0
  9 39  1  0
 10 40  1  0
 11 41  1  0
 11 42  1  0
 12 43  1  0
 12 44  1  0
 13 45  1  0
 13 46  1  0
 14 47  1  0
 14 48  1  0
 17 49  1  0
 18 50  1  0
 19 51  1  0
 23 52  1  0
 26 53  1  0
M  END
