
     RDKit          3D

 53 57  0  0  0  0  0  0  0  0999 V2000
   -5.2596   -3.8689    1.0353 C   0  0  0  0  0  0  0  0  0  0  0  0
    0.4561    4.0147   -0.3547 C   0  0  0  0  0  0  0  0  0  0  0  0
    7.0571   -1.4002   -1.2758 C   0  0  0  0  0  0  0  0  0  0  0  0
    6.2189   -0.4796   -1.9003 C   0  0  0  0  0  0  0  0  0  0  0  0
    6.5909   -2.1358   -0.1898 C   0  0  0  0  0  0  0  0  0  0  0  0
    4.9116   -0.2931   -1.4383 C   0  0  0  0  0  0  0  0  0  0  0  0
    5.2847   -1.9500    0.2719 C   0  0  0  0  0  0  0  0  0  0  0  0
   -4.5011   -1.4828    0.7765 C   0  0  0  0  0  0  0  0  0  0  0  0
   -3.0423   -3.2452    0.0288 C   0  0  0  0  0  0  0  0  0  0  0  0
   -3.5522   -0.5308    0.3895 C   0  0  0  0  0  0  0  0  0  0  0  0
   -2.0946   -2.2936   -0.3571 C   0  0  0  0  0  0  0  0  0  0  0  0
   -2.3551    3.0731    0.1986 C   0  0  0  0  0  0  0  0  0  0  0  0
   -1.5806    2.5891    1.4151 C   0  0  0  0  0  0  0  0  0  0  0  0
   -1.7928    1.2501   -1.4843 C   0  0  0  0  0  0  0  0  0  0  0  0
    2.0895    0.1191   -0.2659 C   0  0  0  0  0  0  0  0  0  0  0  0
   -4.2604   -2.8466    0.5858 C   0  0  0  0  0  0  0  0  0  0  0  0
   -2.3407   -0.9203   -0.1943 C   0  0  0  0  0  0  0  0  0  0  0  0
    4.4250   -1.0257   -0.3443 C   0  0  0  0  0  0  0  0  0  0  0  0
   -1.4841    2.6724   -0.9886 C   0  0  0  0  0  0  0  0  0  0  0  0
   -1.2619    0.0833   -0.6024 C   0  0  0  0  0  0  0  0  0  0  0  0
    3.0564   -0.8359    0.1498 C   0  0  0  0  0  0  0  0  0  0  0  0
   -0.2742    2.0164    0.8475 C   0  0  0  0  0  0  0  0  0  0  0  0
    0.9841   -0.1247    0.5136 C   0  0  0  0  0  0  0  0  0  0  0  0
   -0.3847    0.4853    0.6269 C   0  0  0  0  0  0  0  0  0  0  0  0
    2.5416   -1.6064    1.1247 N   0  0  0  0  0  0  0  0  0  0  0  0
   -0.1098    2.6712   -0.4682 N   0  0  0  0  0  0  0  0  0  0  0  0
    1.2555   -1.1629    1.3441 O   0  0  0  0  0  0  0  0  0  0  0  0
   -6.2777   -3.4686    0.9878 H   0  0  0  0  0  0  0  0  0  0  0  0
   -5.0464   -4.1715    2.0657 H   0  0  0  0  0  0  0  0  0  0  0  0
   -5.2290   -4.7539    0.3907 H   0  0  0  0  0  0  0  0  0  0  0  0
    0.5236    4.4789   -1.3453 H   0  0  0  0  0  0  0  0  0  0  0  0
   -0.1153    4.6835    0.2965 H   0  0  0  0  0  0  0  0  0  0  0  0
    1.4790    3.9568    0.0346 H   0  0  0  0  0  0  0  0  0  0  0  0
    8.0731   -1.5441   -1.6353 H   0  0  0  0  0  0  0  0  0  0  0  0
    6.5812    0.0961   -2.7493 H   0  0  0  0  0  0  0  0  0  0  0  0
    7.2407   -2.8554    0.3015 H   0  0  0  0  0  0  0  0  0  0  0  0
    4.2857    0.4310   -1.9528 H   0  0  0  0  0  0  0  0  0  0  0  0
    4.9438   -2.5354    1.1235 H   0  0  0  0  0  0  0  0  0  0  0  0
   -5.4289   -1.1508    1.2338 H   0  0  0  0  0  0  0  0  0  0  0  0
   -2.8161   -4.3021   -0.1037 H   0  0  0  0  0  0  0  0  0  0  0  0
   -3.7785    0.5150    0.5629 H   0  0  0  0  0  0  0  0  0  0  0  0
   -1.1515   -2.6394   -0.7775 H   0  0  0  0  0  0  0  0  0  0  0  0
   -2.4602    4.1642    0.2453 H   0  0  0  0  0  0  0  0  0  0  0  0
   -3.3655    2.6594    0.1532 H   0  0  0  0  0  0  0  0  0  0  0  0
   -1.3742    3.4381    2.0777 H   0  0  0  0  0  0  0  0  0  0  0  0
   -2.1524    1.8580    1.9944 H   0  0  0  0  0  0  0  0  0  0  0  0
   -2.8671    1.1533   -1.6847 H   0  0  0  0  0  0  0  0  0  0  0  0
   -1.3153    1.1459   -2.4701 H   0  0  0  0  0  0  0  0  0  0  0  0
    2.1763    0.8872   -1.0205 H   0  0  0  0  0  0  0  0  0  0  0  0
   -1.6191    3.3679   -1.8257 H   0  0  0  0  0  0  0  0  0  0  0  0
   -0.6191   -0.4804   -1.2982 H   0  0  0  0  0  0  0  0  0  0  0  0
    0.5606    2.2310    1.5273 H   0  0  0  0  0  0  0  0  0  0  0  0
   -0.8253    0.0633    1.5421 H   0  0  0  0  0  0  0  0  0  0  0  0
  1 16  1  0
  2 26  1  0
  3  4  2  0
  3  5  1  0
  4  6  1  0
  5  7  2  0
  6 18  2  0
  7 18  1  0
  8 10  2  0
  8 16  1  0
  9 11  1  0
  9 16  2  0
 10 17  1  0
 11 17  2  0
 12 13  1  0
 12 19  1  0
 13 22  1  0
 14 19  1  0
 14 20  1  0
 15 21  1  0
 15 23  2  0
 17 20  1  0
 18 21  1  0
 19 26  1  0
 20 24  1  0
 21 25  2  0
 22 24  1  0
 22 26  1  0
 23 24  1  0
 23 27  1  0
 25 27  1  0
  1 28  1  0
  1 29  1  0
  1 30  1  0
  2 31  1  0
  2 32  1  0
  2 33  1  0
  3 34  1  0
  4 35  1  0
  5 36  1  0
  6 37  1  0
  7 38  1  0
  8 39  1  0
  9 40  1  0
 10 41  1  0
 11 42  1  0
 12 43  1  0
 12 44  1  0
 13 45  1  0
 13 46  1  0
 14 47  1  0
 14 48  1  0
 15 49  1  0
 19 50  1  0
 20 51  1  0
 22 52  1  0
 24 53  1  0
M  END
