
     RDKit          3D

 58 61  0  0  0  0  0  0  0  0999 V2000
   -7.5727    0.9296   -1.6562 C   0  0  0  0  0  0  0  0  0  0  0  0
   -4.7569   -3.8285    1.4134 C   0  0  0  0  0  0  0  0  0  0  0  0
   -6.5513    0.1784   -2.4992 C   0  0  0  0  0  0  0  0  0  0  0  0
   -5.2942   -0.2190   -1.7227 C   0  0  0  0  0  0  0  0  0  0  0  0
   -4.4741    0.9836   -1.2462 C   0  0  0  0  0  0  0  0  0  0  0  0
    4.8389    1.8838   -0.2338 C   0  0  0  0  0  0  0  0  0  0  0  0
   -0.6608   -2.9357    1.8519 C   0  0  0  0  0  0  0  0  0  0  0  0
    5.2747    2.4396   -1.4417 C   0  0  0  0  0  0  0  0  0  0  0  0
   -1.9656   -3.3258    1.5519 C   0  0  0  0  0  0  0  0  0  0  0  0
   -3.1696    0.5634   -0.5672 C   0  0  0  0  0  0  0  0  0  0  0  0
    6.8799    0.5607   -0.0575 C   0  0  0  0  0  0  0  0  0  0  0  0
    1.0379   -1.2026    2.0680 C   0  0  0  0  0  0  0  0  0  0  0  0
    5.1523    0.3480    1.7750 C   0  0  0  0  0  0  0  0  0  0  0  0
    8.3484    1.7669   -3.0184 C   0  0  0  0  0  0  0  0  0  0  0  0
    5.6234    0.9279    0.4609 C   0  0  0  0  0  0  0  0  0  0  0  0
   -0.2733   -1.5900    1.7504 C   0  0  0  0  0  0  0  0  0  0  0  0
    1.4023    0.1386    1.9808 C   0  0  0  0  0  0  0  0  0  0  0  0
    6.5052    2.0409   -1.9219 C   0  0  0  0  0  0  0  0  0  0  0  0
   -2.8974   -2.3745    1.1474 C   0  0  0  0  0  0  0  0  0  0  0  0
    7.2875    1.1337   -1.2455 C   0  0  0  0  0  0  0  0  0  0  0  0
   -1.1980   -0.6014    1.3361 C   0  0  0  0  0  0  0  0  0  0  0  0
   -2.5003   -1.0285    1.0174 C   0  0  0  0  0  0  0  0  0  0  0  0
    2.7642    0.5788    2.3283 C   0  0  0  0  0  0  0  0  0  0  0  0
    0.4357    1.0349    1.5799 C   0  0  0  0  0  0  0  0  0  0  0  0
    3.7794   -0.1081    1.6940 N   0  0  0  0  0  0  0  0  0  0  0  0
   -0.8284    0.7015    1.2599 N   0  0  0  0  0  0  0  0  0  0  0  0
    2.9436    1.4891    3.1261 O   0  0  0  0  0  0  0  0  0  0  0  0
    0.6808    2.3566    1.4071 O   0  0  0  0  0  0  0  0  0  0  0  0
   -4.1920   -2.6743    0.8030 O   0  0  0  0  0  0  0  0  0  0  0  0
   -3.4853   -0.1346    0.6414 O   0  0  0  0  0  0  0  0  0  0  0  0
    7.0942    2.4801   -3.0662 O   0  0  0  0  0  0  0  0  0  0  0  0
    8.4727    0.8974   -1.8736 O   0  0  0  0  0  0  0  0  0  0  0  0
   -8.4922    1.0886   -2.2277 H   0  0  0  0  0  0  0  0  0  0  0  0
   -7.8262    0.3666   -0.7518 H   0  0  0  0  0  0  0  0  0  0  0  0
   -7.1947    1.9120   -1.3651 H   0  0  0  0  0  0  0  0  0  0  0  0
   -5.8315   -3.8207    1.2087 H   0  0  0  0  0  0  0  0  0  0  0  0
   -4.3447   -4.7459    0.9799 H   0  0  0  0  0  0  0  0  0  0  0  0
   -4.6221   -3.8122    2.5003 H   0  0  0  0  0  0  0  0  0  0  0  0
   -7.0196   -0.7331   -2.8913 H   0  0  0  0  0  0  0  0  0  0  0  0
   -6.2770    0.7922   -3.3657 H   0  0  0  0  0  0  0  0  0  0  0  0
   -4.6689   -0.8423   -2.3751 H   0  0  0  0  0  0  0  0  0  0  0  0
   -5.5805   -0.8455   -0.8685 H   0  0  0  0  0  0  0  0  0  0  0  0
   -4.2400    1.6295   -2.1002 H   0  0  0  0  0  0  0  0  0  0  0  0
   -5.0667    1.5704   -0.5345 H   0  0  0  0  0  0  0  0  0  0  0  0
    3.8809    2.2089    0.1771 H   0  0  0  0  0  0  0  0  0  0  0  0
    0.0515   -3.6961    2.1690 H   0  0  0  0  0  0  0  0  0  0  0  0
    4.6725    3.1697   -1.9725 H   0  0  0  0  0  0  0  0  0  0  0  0
   -2.2219   -4.3780    1.6282 H   0  0  0  0  0  0  0  0  0  0  0  0
   -2.6094    1.4722   -0.3234 H   0  0  0  0  0  0  0  0  0  0  0  0
   -2.5766   -0.0549   -1.2533 H   0  0  0  0  0  0  0  0  0  0  0  0
    7.5278   -0.1433    0.4576 H   0  0  0  0  0  0  0  0  0  0  0  0
    1.7647   -1.9367    2.4081 H   0  0  0  0  0  0  0  0  0  0  0  0
    5.7481   -0.5350    2.0333 H   0  0  0  0  0  0  0  0  0  0  0  0
    5.2806    1.0905    2.5705 H   0  0  0  0  0  0  0  0  0  0  0  0
    8.4443    1.1627   -3.9286 H   0  0  0  0  0  0  0  0  0  0  0  0
    9.1662    2.4987   -2.9932 H   0  0  0  0  0  0  0  0  0  0  0  0
    3.5532   -0.7460    0.9424 H   0  0  0  0  0  0  0  0  0  0  0  0
   -0.2190    2.6845    1.2328 H   0  0  0  0  0  0  0  0  0  0  0  0
  1  3  1  0
  2 29  1  0
  3  4  1  0
  4  5  1  0
  5 10  1  0
  6  8  2  0
  6 15  1  0
  7  9  2  0
  7 16  1  0
  8 18  1  0
  9 19  1  0
 10 30  1  0
 11 15  2  0
 11 20  1  0
 12 16  2  0
 12 17  1  0
 13 15  1  0
 13 25  1  0
 14 31  1  0
 14 32  1  0
 16 21  1  0
 17 23  1  0
 17 24  2  0
 18 20  2  0
 18 31  1  0
 19 22  2  0
 19 29  1  0
 20 32  1  0
 21 22  1  0
 21 26  2  0
 22 30  1  0
 23 25  1  0
 23 27  2  0
 24 26  1  0
 24 28  1  0
  1 33  1  0
  1 34  1  0
  1 35  1  0
  2 36  1  0
  2 37  1  0
  2 38  1  0
  3 39  1  0
  3 40  1  0
  4 41  1  0
  4 42  1  0
  5 43  1  0
  5 44  1  0
  6 45  1  0
  7 46  1  0
  8 47  1  0
  9 48  1  0
 10 49  1  0
 10 50  1  0
 11 51  1  0
 12 52  1  0
 13 53  1  0
 13 54  1  0
 14 55  1  0
 14 56  1  0
 25 57  1  0
 28 58  1  0
M  END
