
     RDKit          3D

 54 57  0  0  0  0  0  0  0  0999 V2000
   -4.8128    0.9376    3.3925 C   0  0  0  0  0  0  0  0  0  0  0  0
   -2.8865   -1.1882   -2.5324 C   0  0  0  0  0  0  0  0  0  0  0  0
   -3.1106    1.2454   -2.9954 C   0  0  0  0  0  0  0  0  0  0  0  0
    8.1281    0.3896   -0.1524 C   0  0  0  0  0  0  0  0  0  0  0  0
    7.3262    0.8854   -1.1787 C   0  0  0  0  0  0  0  0  0  0  0  0
    7.5450   -0.0604    1.0308 C   0  0  0  0  0  0  0  0  0  0  0  0
    5.9402    0.9326   -1.0224 C   0  0  0  0  0  0  0  0  0  0  0  0
    6.1590   -0.0143    1.1892 C   0  0  0  0  0  0  0  0  0  0  0  0
   -5.2195    0.9579    0.8751 C   0  0  0  0  0  0  0  0  0  0  0  0
    3.8445    0.5179    0.3256 C   0  0  0  0  0  0  0  0  0  0  0  0
    3.1938   -0.7568   -0.2189 C   0  0  0  0  0  0  0  0  0  0  0  0
   -4.7460    0.4515   -0.4936 C   0  0  0  0  0  0  0  0  0  0  0  0
   -3.1591   -0.0888    1.8355 C   0  0  0  0  0  0  0  0  0  0  0  0
    1.0953   -1.3037    1.0784 C   0  0  0  0  0  0  0  0  0  0  0  0
    0.8790   -0.1384   -1.0088 C   0  0  0  0  0  0  0  0  0  0  0  0
   -4.3258    0.5588    2.0233 C   0  0  0  0  0  0  0  0  0  0  0  0
    5.3444    0.4871    0.1653 C   0  0  0  0  0  0  0  0  0  0  0  0
    1.6963   -0.7332   -0.0453 C   0  0  0  0  0  0  0  0  0  0  0  0
   -2.6307   -0.4937    0.4696 C   0  0  0  0  0  0  0  0  0  0  0  0
   -3.2127    0.4868   -0.5787 C   0  0  0  0  0  0  0  0  0  0  0  0
   -0.2944   -1.2501    1.2393 C   0  0  0  0  0  0  0  0  0  0  0  0
   -0.5108   -0.0978   -0.8453 C   0  0  0  0  0  0  0  0  0  0  0  0
   -1.1228   -0.5890    0.3173 C   0  0  0  0  0  0  0  0  0  0  0  0
   -2.6076    0.2144   -1.9683 C   0  0  0  0  0  0  0  0  0  0  0  0
   -0.8509   -1.9000    2.3078 O   0  0  0  0  0  0  0  0  0  0  0  0
   -1.1830    0.4321   -1.9145 O   0  0  0  0  0  0  0  0  0  0  0  0
   -4.9401    2.0227    3.4627 H   0  0  0  0  0  0  0  0  0  0  0  0
   -4.1145    0.6324    4.1786 H   0  0  0  0  0  0  0  0  0  0  0  0
   -5.7762    0.4599    3.5980 H   0  0  0  0  0  0  0  0  0  0  0  0
   -2.4167   -1.3054   -3.5164 H   0  0  0  0  0  0  0  0  0  0  0  0
   -2.4627   -1.9804   -1.9080 H   0  0  0  0  0  0  0  0  0  0  0  0
   -3.9592   -1.3742   -2.6434 H   0  0  0  0  0  0  0  0  0  0  0  0
   -2.5463    1.1664   -3.9326 H   0  0  0  0  0  0  0  0  0  0  0  0
   -4.1709    1.1163   -3.2314 H   0  0  0  0  0  0  0  0  0  0  0  0
   -2.9547    2.2675   -2.6312 H   0  0  0  0  0  0  0  0  0  0  0  0
    9.2073    0.3536   -0.2749 H   0  0  0  0  0  0  0  0  0  0  0  0
    7.7803    1.2353   -2.1022 H   0  0  0  0  0  0  0  0  0  0  0  0
    8.1702   -0.4477    1.8310 H   0  0  0  0  0  0  0  0  0  0  0  0
    5.3269    1.3202   -1.8330 H   0  0  0  0  0  0  0  0  0  0  0  0
    5.7188   -0.3708    2.1175 H   0  0  0  0  0  0  0  0  0  0  0  0
   -5.2660    2.0542    0.8462 H   0  0  0  0  0  0  0  0  0  0  0  0
   -6.2402    0.5984    1.0511 H   0  0  0  0  0  0  0  0  0  0  0  0
    3.4441    1.4034   -0.1854 H   0  0  0  0  0  0  0  0  0  0  0  0
    3.5939    0.6526    1.3862 H   0  0  0  0  0  0  0  0  0  0  0  0
    3.4326   -0.8866   -1.2827 H   0  0  0  0  0  0  0  0  0  0  0  0
    3.6062   -1.6415    0.2840 H   0  0  0  0  0  0  0  0  0  0  0  0
   -5.2100    1.0714   -1.2669 H   0  0  0  0  0  0  0  0  0  0  0  0
   -5.1088   -0.5725   -0.6482 H   0  0  0  0  0  0  0  0  0  0  0  0
   -2.5710   -0.3575    2.7077 H   0  0  0  0  0  0  0  0  0  0  0  0
    1.7168   -1.7975    1.8205 H   0  0  0  0  0  0  0  0  0  0  0  0
    1.3150    0.2838   -1.9119 H   0  0  0  0  0  0  0  0  0  0  0  0
   -3.0133   -1.5065    0.2786 H   0  0  0  0  0  0  0  0  0  0  0  0
   -2.8901    1.5047   -0.2996 H   0  0  0  0  0  0  0  0  0  0  0  0
   -0.1498   -2.3452    2.8105 H   0  0  0  0  0  0  0  0  0  0  0  0
  1 16  1  0
  2 24  1  0
  3 24  1  0
  4  5  2  0
  4  6  1  0
  5  7  1  0
  6  8  2  0
  7 17  2  0
  8 17  1  0
  9 12  1  0
  9 16  1  0
 10 11  1  0
 10 17  1  0
 11 18  1  0
 12 20  1  0
 13 16  2  0
 13 19  1  0
 14 18  2  0
 14 21  1  0
 15 18  1  0
 15 22  2  0
 19 20  1  0
 19 23  1  0
 20 24  1  0
 21 23  2  0
 21 25  1  0
 22 23  1  0
 22 26  1  0
 24 26  1  0
  1 27  1  0
  1 28  1  0
  1 29  1  0
  2 30  1  0
  2 31  1  0
  2 32  1  0
  3 33  1  0
  3 34  1  0
  3 35  1  0
  4 36  1  0
  5 37  1  0
  6 38  1  0
  7 39  1  0
  8 40  1  0
  9 41  1  0
  9 42  1  0
 10 43  1  0
 10 44  1  0
 11 45  1  0
 11 46  1  0
 12 47  1  0
 12 48  1  0
 13 49  1  0
 14 50  1  0
 15 51  1  0
 19 52  1  0
 20 53  1  0
 25 54  1  0
M  END
