
     RDKit          3D

 61 63  0  0  0  0  0  0  0  0999 V2000
   -3.8891    4.6897   -1.4457 C   0  0  0  0  0  0  0  0  0  0  0  0
    2.8582   -3.8108   -3.1404 C   0  0  0  0  0  0  0  0  0  0  0  0
    7.3753    0.3179    1.0192 C   0  0  0  0  0  0  0  0  0  0  0  0
   -3.1664    3.5550   -0.7336 C   0  0  0  0  0  0  0  0  0  0  0  0
   -6.1536   -0.8662    3.1316 C   0  0  0  0  0  0  0  0  0  0  0  0
   -6.3951    0.4901    2.9552 C   0  0  0  0  0  0  0  0  0  0  0  0
   -5.0543   -1.4479    2.5126 C   0  0  0  0  0  0  0  0  0  0  0  0
   -5.5400    1.2589    2.1559 C   0  0  0  0  0  0  0  0  0  0  0  0
   -4.2004   -0.6730    1.7148 C   0  0  0  0  0  0  0  0  0  0  0  0
    2.6245   -0.2442   -0.9168 C   0  0  0  0  0  0  0  0  0  0  0  0
   -1.3627    0.7231    1.7923 C   0  0  0  0  0  0  0  0  0  0  0  0
   -1.8894    0.2099   -0.6652 C   0  0  0  0  0  0  0  0  0  0  0  0
    1.6609   -0.7952    0.1481 C   0  0  0  0  0  0  0  0  0  0  0  0
   -0.3066   -0.3440    1.4964 C   0  0  0  0  0  0  0  0  0  0  0  0
   -0.3914   -0.0075   -0.9172 C   0  0  0  0  0  0  0  0  0  0  0  0
    5.0408   -0.5898   -0.2955 C   0  0  0  0  0  0  0  0  0  0  0  0
    5.1613   -2.9787   -1.7322 C   0  0  0  0  0  0  0  0  0  0  0  0
    3.9037   -1.0528   -0.9865 C   0  0  0  0  0  0  0  0  0  0  0  0
   -4.4268    0.6963    1.5077 C   0  0  0  0  0  0  0  0  0  0  0  0
   -2.1205    1.1564    0.5204 C   0  0  0  0  0  0  0  0  0  0  0  0
    6.2870   -2.5024   -1.0478 C   0  0  0  0  0  0  0  0  0  0  0  0
    3.9658   -2.2597   -1.7054 C   0  0  0  0  0  0  0  0  0  0  0  0
    6.2411   -1.3040   -0.3224 C   0  0  0  0  0  0  0  0  0  0  0  0
   -4.1275    2.5868   -0.0461 C   0  0  0  0  0  0  0  0  0  0  0  0
    7.8789   -3.5427   -1.1404 Br  0  0  0  0  0  0  0  0  0  0  0  0
    0.4433    0.0258    0.2958 N   0  0  0  0  0  0  0  0  0  0  0  0
   -3.5516    1.5287    0.7029 N   0  0  0  0  0  0  0  0  0  0  0  0
   -5.3416    2.7601   -0.1782 O   0  0  0  0  0  0  0  0  0  0  0  0
    2.8089   -2.6425   -2.3317 O   0  0  0  0  0  0  0  0  0  0  0  0
    7.3893   -0.9183    0.3179 O   0  0  0  0  0  0  0  0  0  0  0  0
   -3.1690    5.3652   -1.9182 H   0  0  0  0  0  0  0  0  0  0  0  0
   -4.4945    5.2714   -0.7429 H   0  0  0  0  0  0  0  0  0  0  0  0
   -4.5549    4.3042   -2.2240 H   0  0  0  0  0  0  0  0  0  0  0  0
    3.0775   -4.6975   -2.5368 H   0  0  0  0  0  0  0  0  0  0  0  0
    3.5799   -3.6980   -3.9558 H   0  0  0  0  0  0  0  0  0  0  0  0
    1.8696   -3.9492   -3.5873 H   0  0  0  0  0  0  0  0  0  0  0  0
    6.6628    0.2919    1.8508 H   0  0  0  0  0  0  0  0  0  0  0  0
    7.1670    1.1546    0.3442 H   0  0  0  0  0  0  0  0  0  0  0  0
    8.3728    0.4732    1.4407 H   0  0  0  0  0  0  0  0  0  0  0  0
   -2.5056    3.9915    0.0218 H   0  0  0  0  0  0  0  0  0  0  0  0
   -2.5736    3.0132   -1.4756 H   0  0  0  0  0  0  0  0  0  0  0  0
   -6.8182   -1.4652    3.7484 H   0  0  0  0  0  0  0  0  0  0  0  0
   -7.2471    0.9608    3.4384 H   0  0  0  0  0  0  0  0  0  0  0  0
   -4.8577   -2.5089    2.6451 H   0  0  0  0  0  0  0  0  0  0  0  0
   -5.7558    2.3212    2.0731 H   0  0  0  0  0  0  0  0  0  0  0  0
   -3.3698   -1.1907    1.2542 H   0  0  0  0  0  0  0  0  0  0  0  0
    2.8677    0.8009   -0.6867 H   0  0  0  0  0  0  0  0  0  0  0  0
    2.1594   -0.2244   -1.9095 H   0  0  0  0  0  0  0  0  0  0  0  0
   -0.8693    1.6109    2.2128 H   0  0  0  0  0  0  0  0  0  0  0  0
   -2.0126    0.3663    2.5945 H   0  0  0  0  0  0  0  0  0  0  0  0
   -2.3547    0.6086   -1.5750 H   0  0  0  0  0  0  0  0  0  0  0  0
   -2.3614   -0.7627   -0.4938 H   0  0  0  0  0  0  0  0  0  0  0  0
    1.3958   -1.8383   -0.0693 H   0  0  0  0  0  0  0  0  0  0  0  0
    2.2002   -0.8071    1.1049 H   0  0  0  0  0  0  0  0  0  0  0  0
   -0.7706   -1.3325    1.3853 H   0  0  0  0  0  0  0  0  0  0  0  0
    0.3577   -0.3997    2.3674 H   0  0  0  0  0  0  0  0  0  0  0  0
   -0.0342    0.7797   -1.5923 H   0  0  0  0  0  0  0  0  0  0  0  0
   -0.2844   -0.9600   -1.4535 H   0  0  0  0  0  0  0  0  0  0  0  0
    4.9567    0.3395    0.2601 H   0  0  0  0  0  0  0  0  0  0  0  0
    5.2447   -3.9141   -2.2753 H   0  0  0  0  0  0  0  0  0  0  0  0
   -1.6004    2.0762    0.2376 H   0  0  0  0  0  0  0  0  0  0  0  0
  1  4  1  0
  2 29  1  0
  3 30  1  0
  4 24  1  0
  5  6  2  0
  5  7  1  0
  6  8  1  0
  7  9  2  0
  8 19  2  0
  9 19  1  0
 10 13  1  0
 10 18  1  0
 11 14  1  0
 11 20  1  0
 12 15  1  0
 12 20  1  0
 13 26  1  0
 14 26  1  0
 15 26  1  0
 16 18  2  0
 16 23  1  0
 17 21  1  0
 17 22  2  0
 18 22  1  0
 19 27  1  0
 20 27  1  0
 21 23  2  0
 21 25  1  0
 22 29  1  0
 23 30  1  0
 24 27  1  0
 24 28  2  0
  1 31  1  0
  1 32  1  0
  1 33  1  0
  2 34  1  0
  2 35  1  0
  2 36  1  0
  3 37  1  0
  3 38  1  0
  3 39  1  0
  4 40  1  0
  4 41  1  0
  5 42  1  0
  6 43  1  0
  7 44  1  0
  8 45  1  0
  9 46  1  0
 10 47  1  0
 10 48  1  0
 11 49  1  0
 11 50  1  0
 12 51  1  0
 12 52  1  0
 13 53  1  0
 13 54  1  0
 14 55  1  0
 14 56  1  0
 15 57  1  0
 15 58  1  0
 16 59  1  0
 17 60  1  0
 20 61  1  0
M  END
