
     RDKit          3D

 61 65  0  0  0  0  0  0  0  0999 V2000
    0.8757   -1.3856    1.9354 C   0  0  0  0  0  0  0  0  0  0  0  0
   -2.0003   -2.7418   -1.7793 C   0  0  0  0  0  0  0  0  0  0  0  0
   -3.3270   -2.0069   -1.7337 C   0  0  0  0  0  0  0  0  0  0  0  0
    5.4849   -1.6277   -2.9589 C   0  0  0  0  0  0  0  0  0  0  0  0
   -4.5962    3.2801    1.5951 C   0  0  0  0  0  0  0  0  0  0  0  0
    4.4043   -1.8770   -2.1070 C   0  0  0  0  0  0  0  0  0  0  0  0
    6.4413   -0.6604   -2.6453 C   0  0  0  0  0  0  0  0  0  0  0  0
   -0.7528    1.0137    1.9540 C   0  0  0  0  0  0  0  0  0  0  0  0
    5.3819    0.7480    0.4804 C   0  0  0  0  0  0  0  0  0  0  0  0
   -3.6133    3.1955    0.4545 C   0  0  0  0  0  0  0  0  0  0  0  0
   -1.6475    2.2314    1.7283 C   0  0  0  0  0  0  0  0  0  0  0  0
   -1.3381   -2.4434   -0.4386 C   0  0  0  0  0  0  0  0  0  0  0  0
   -3.4154   -1.4855   -0.3106 C   0  0  0  0  0  0  0  0  0  0  0  0
   -4.9123    1.8229    1.8364 C   0  0  0  0  0  0  0  0  0  0  0  0
    6.5291    1.4480    0.1888 C   0  0  0  0  0  0  0  0  0  0  0  0
    3.0429   -1.4775   -0.0084 C   0  0  0  0  0  0  0  0  0  0  0  0
   -2.3206    1.2495   -0.5147 C   0  0  0  0  0  0  0  0  0  0  0  0
    4.2308   -1.1715   -0.8947 C   0  0  0  0  0  0  0  0  0  0  0  0
    5.1899   -0.1797   -0.5818 C   0  0  0  0  0  0  0  0  0  0  0  0
   -0.2161    0.4752    0.6164 C   0  0  0  0  0  0  0  0  0  0  0  0
   -1.3894    0.0118   -0.3359 C   0  0  0  0  0  0  0  0  0  0  0  0
    6.2501    0.0357   -1.4558 C   0  0  0  0  0  0  0  0  0  0  0  0
    1.8472   -0.5589   -0.2412 C   0  0  0  0  0  0  0  0  0  0  0  0
   -2.8172    1.9245    0.7790 C   0  0  0  0  0  0  0  0  0  0  0  0
    0.8875   -0.5002    0.7738 N   0  0  0  0  0  0  0  0  0  0  0  0
   -2.0271   -1.2604    0.1231 N   0  0  0  0  0  0  0  0  0  0  0  0
    1.7250    0.0964   -1.2784 O   0  0  0  0  0  0  0  0  0  0  0  0
    7.0650    1.0193   -0.9825 O   0  0  0  0  0  0  0  0  0  0  0  0
   -3.7394    1.0763    1.4887 O   0  0  0  0  0  0  0  0  0  0  0  0
   -0.1446   -1.7057    2.1594 H   0  0  0  0  0  0  0  0  0  0  0  0
    1.2871   -0.8419    2.7903 H   0  0  0  0  0  0  0  0  0  0  0  0
    1.4709   -2.2853    1.7679 H   0  0  0  0  0  0  0  0  0  0  0  0
   -2.1419   -3.8184   -1.9172 H   0  0  0  0  0  0  0  0  0  0  0  0
   -1.3931   -2.3713   -2.6120 H   0  0  0  0  0  0  0  0  0  0  0  0
   -3.3214   -1.1794   -2.4521 H   0  0  0  0  0  0  0  0  0  0  0  0
   -4.1664   -2.6632   -1.9815 H   0  0  0  0  0  0  0  0  0  0  0  0
    5.5789   -2.1910   -3.8847 H   0  0  0  0  0  0  0  0  0  0  0  0
   -4.1151    3.7158    2.4777 H   0  0  0  0  0  0  0  0  0  0  0  0
   -5.4839    3.8751    1.3650 H   0  0  0  0  0  0  0  0  0  0  0  0
    3.6754   -2.6317   -2.3996 H   0  0  0  0  0  0  0  0  0  0  0  0
    7.2824   -0.4489   -3.2931 H   0  0  0  0  0  0  0  0  0  0  0  0
    0.0829    1.3123    2.5988 H   0  0  0  0  0  0  0  0  0  0  0  0
   -1.3108    0.2420    2.4964 H   0  0  0  0  0  0  0  0  0  0  0  0
    4.7557    0.8920    1.3484 H   0  0  0  0  0  0  0  0  0  0  0  0
   -2.9919    4.0905    0.3557 H   0  0  0  0  0  0  0  0  0  0  0  0
   -4.1713    3.0741   -0.4826 H   0  0  0  0  0  0  0  0  0  0  0  0
   -2.0177    2.5634    2.7057 H   0  0  0  0  0  0  0  0  0  0  0  0
   -1.0383    3.0475    1.3193 H   0  0  0  0  0  0  0  0  0  0  0  0
   -1.4996   -3.2889    0.2427 H   0  0  0  0  0  0  0  0  0  0  0  0
   -0.2574   -2.3453   -0.5518 H   0  0  0  0  0  0  0  0  0  0  0  0
   -4.0942   -0.6369   -0.2218 H   0  0  0  0  0  0  0  0  0  0  0  0
   -3.8473   -2.2653    0.3316 H   0  0  0  0  0  0  0  0  0  0  0  0
   -5.1846    1.6183    2.8755 H   0  0  0  0  0  0  0  0  0  0  0  0
   -5.7275    1.4822    1.1893 H   0  0  0  0  0  0  0  0  0  0  0  0
    7.0682    2.2427    0.6846 H   0  0  0  0  0  0  0  0  0  0  0  0
    2.7193   -2.5128   -0.1676 H   0  0  0  0  0  0  0  0  0  0  0  0
    3.3757   -1.3881    1.0323 H   0  0  0  0  0  0  0  0  0  0  0  0
   -1.7508    1.9987   -1.0844 H   0  0  0  0  0  0  0  0  0  0  0  0
   -3.1667    0.9949   -1.1623 H   0  0  0  0  0  0  0  0  0  0  0  0
    0.2469    1.3389    0.1157 H   0  0  0  0  0  0  0  0  0  0  0  0
   -0.9621   -0.1660   -1.3326 H   0  0  0  0  0  0  0  0  0  0  0  0
  1 25  1  0
  2  3  1  0
  2 12  1  0
  3 13  1  0
  4  6  2  0
  4  7  1  0
  5 10  1  0
  5 14  1  0
  6 18  1  0
  7 22  2  0
  8 11  1  0
  8 20  1  0
  9 15  2  0
  9 19  1  0
 10 24  1  0
 11 24  1  0
 12 26  1  0
 13 26  1  0
 14 29  1  0
 15 28  1  0
 16 18  1  0
 16 23  1  0
 17 21  1  0
 17 24  1  0
 18 19  2  0
 19 22  1  0
 20 21  1  0
 20 25  1  0
 21 26  1  0
 22 28  1  0
 23 25  1  0
 23 27  2  0
 24 29  1  0
  1 30  1  0
  1 31  1  0
  1 32  1  0
  2 33  1  0
  2 34  1  0
  3 35  1  0
  3 36  1  0
  4 37  1  0
  5 38  1  0
  5 39  1  0
  6 40  1  0
  7 41  1  0
  8 42  1  0
  8 43  1  0
  9 44  1  0
 10 45  1  0
 10 46  1  0
 11 47  1  0
 11 48  1  0
 12 49  1  0
 12 50  1  0
 13 51  1  0
 13 52  1  0
 14 53  1  0
 14 54  1  0
 15 55  1  0
 16 56  1  0
 16 57  1  0
 17 58  1  0
 17 59  1  0
 20 60  1  0
 21 61  1  0
M  END
