
     RDKit          3D

 66 69  0  0  0  0  0  0  0  0999 V2000
   -6.3007    1.3717    1.9783 C   0  0  0  0  0  0  0  0  0  0  0  0
   -5.8977    1.8071    0.5790 C   0  0  0  0  0  0  0  0  0  0  0  0
    6.7565    1.5178    0.0824 C   0  0  0  0  0  0  0  0  0  0  0  0
    6.2481    1.7039   -1.3467 C   0  0  0  0  0  0  0  0  0  0  0  0
    6.8074    0.0624    0.5527 C   0  0  0  0  0  0  0  0  0  0  0  0
    4.7937    2.1560   -1.4766 C   0  0  0  0  0  0  0  0  0  0  0  0
    5.4620   -0.6310    0.7755 C   0  0  0  0  0  0  0  0  0  0  0  0
   -6.7882   -1.9342   -1.7887 C   0  0  0  0  0  0  0  0  0  0  0  0
   -5.6328   -2.6419   -2.1716 C   0  0  0  0  0  0  0  0  0  0  0  0
    3.7505    1.5301   -0.5514 C   0  0  0  0  0  0  0  0  0  0  0  0
    4.6681   -0.9015   -0.5059 C   0  0  0  0  0  0  0  0  0  0  0  0
   -6.6912   -0.7410   -1.0679 C   0  0  0  0  0  0  0  0  0  0  0  0
   -4.3565   -2.1727   -1.8397 C   0  0  0  0  0  0  0  0  0  0  0  0
   -0.9845    0.3634   -1.6194 C   0  0  0  0  0  0  0  0  0  0  0  0
    0.5164    0.1232   -1.4973 C   0  0  0  0  0  0  0  0  0  0  0  0
    2.2664   -0.4253    0.1262 C   0  0  0  0  0  0  0  0  0  0  0  0
   -0.0125   -0.0062    0.9098 C   0  0  0  0  0  0  0  0  0  0  0  0
   -1.9276   -1.5022    1.6489 C   0  0  0  0  0  0  0  0  0  0  0  0
    3.4635    0.0308   -0.7609 C   0  0  0  0  0  0  0  0  0  0  0  0
   -1.0156   -1.0928    0.4891 C   0  0  0  0  0  0  0  0  0  0  0  0
   -1.7654   -0.6856   -0.8086 C   0  0  0  0  0  0  0  0  0  0  0  0
   -5.4246   -0.2918   -0.7530 C   0  0  0  0  0  0  0  0  0  0  0  0
   -4.2749   -0.9928   -1.1269 C   0  0  0  0  0  0  0  0  0  0  0  0
   -3.6185    0.8636    0.0461 C   0  0  0  0  0  0  0  0  0  0  0  0
    1.0017    0.2865   -0.1218 N   0  0  0  0  0  0  0  0  0  0  0  0
   -5.0247    0.8514   -0.0526 N   0  0  0  0  0  0  0  0  0  0  0  0
   -3.1569   -0.2880   -0.6391 N   0  0  0  0  0  0  0  0  0  0  0  0
   -1.1722   -2.1411    2.6769 O   0  0  0  0  0  0  0  0  0  0  0  0
   -2.9418    1.6957    0.6277 O   0  0  0  0  0  0  0  0  0  0  0  0
   -6.9447    2.1259    2.4408 H   0  0  0  0  0  0  0  0  0  0  0  0
   -5.4208    1.2345    2.6156 H   0  0  0  0  0  0  0  0  0  0  0  0
   -6.8468    0.4231    1.9557 H   0  0  0  0  0  0  0  0  0  0  0  0
   -5.3684    2.7644    0.6450 H   0  0  0  0  0  0  0  0  0  0  0  0
   -6.7814    1.9657   -0.0480 H   0  0  0  0  0  0  0  0  0  0  0  0
    6.2004    2.1376    0.7940 H   0  0  0  0  0  0  0  0  0  0  0  0
    7.7894    1.8901    0.1127 H   0  0  0  0  0  0  0  0  0  0  0  0
    6.4290    0.8085   -1.9494 H   0  0  0  0  0  0  0  0  0  0  0  0
    6.8598    2.4826   -1.8230 H   0  0  0  0  0  0  0  0  0  0  0  0
    7.4123   -0.5279   -0.1472 H   0  0  0  0  0  0  0  0  0  0  0  0
    7.3499    0.0431    1.5070 H   0  0  0  0  0  0  0  0  0  0  0  0
    4.4785    2.0256   -2.5195 H   0  0  0  0  0  0  0  0  0  0  0  0
    4.7709    3.2393   -1.2954 H   0  0  0  0  0  0  0  0  0  0  0  0
    4.8721   -0.0858    1.5191 H   0  0  0  0  0  0  0  0  0  0  0  0
    5.6842   -1.6040    1.2341 H   0  0  0  0  0  0  0  0  0  0  0  0
   -7.7682   -2.3225   -2.0587 H   0  0  0  0  0  0  0  0  0  0  0  0
   -5.7363   -3.5684   -2.7332 H   0  0  0  0  0  0  0  0  0  0  0  0
    3.9990    1.7337    0.4955 H   0  0  0  0  0  0  0  0  0  0  0  0
    2.8216    2.0876   -0.7295 H   0  0  0  0  0  0  0  0  0  0  0  0
    4.2923   -1.9329   -0.4578 H   0  0  0  0  0  0  0  0  0  0  0  0
    5.3294   -0.9039   -1.3779 H   0  0  0  0  0  0  0  0  0  0  0  0
   -7.5823   -0.1993   -0.7749 H   0  0  0  0  0  0  0  0  0  0  0  0
   -3.4809   -2.7333   -2.1409 H   0  0  0  0  0  0  0  0  0  0  0  0
   -1.2158    1.3839   -1.2910 H   0  0  0  0  0  0  0  0  0  0  0  0
   -1.2883    0.3105   -2.6723 H   0  0  0  0  0  0  0  0  0  0  0  0
    1.0386    0.8321   -2.1496 H   0  0  0  0  0  0  0  0  0  0  0  0
    0.7348   -0.8852   -1.8736 H   0  0  0  0  0  0  0  0  0  0  0  0
    2.1046   -1.5040    0.0003 H   0  0  0  0  0  0  0  0  0  0  0  0
    2.5571   -0.2735    1.1735 H   0  0  0  0  0  0  0  0  0  0  0  0
   -0.5491    0.9261    1.1202 H   0  0  0  0  0  0  0  0  0  0  0  0
    0.4677   -0.2711    1.8599 H   0  0  0  0  0  0  0  0  0  0  0  0
   -2.6968   -2.2092    1.3221 H   0  0  0  0  0  0  0  0  0  0  0  0
   -2.4222   -0.6375    2.0999 H   0  0  0  0  0  0  0  0  0  0  0  0
    3.1815   -0.1182   -1.8114 H   0  0  0  0  0  0  0  0  0  0  0  0
   -0.4101   -1.9791    0.2441 H   0  0  0  0  0  0  0  0  0  0  0  0
   -1.7703   -1.5927   -1.4253 H   0  0  0  0  0  0  0  0  0  0  0  0
   -0.8389   -2.9814    2.3196 H   0  0  0  0  0  0  0  0  0  0  0  0
  1  2  1  0
  2 26  1  0
  3  4  1  0
  3  5  1  0
  4  6  1  0
  5  7  1  0
  6 10  1  0
  7 11  1  0
  8  9  2  0
  8 12  1  0
  9 13  1  0
 10 19  1  0
 11 19  1  0
 12 22  2  0
 13 23  2  0
 14 15  1  0
 14 21  1  0
 15 25  1  0
 16 19  1  0
 16 25  1  0
 17 20  1  0
 17 25  1  0
 18 20  1  0
 18 28  1  0
 20 21  1  0
 21 27  1  0
 22 23  1  0
 22 26  1  0
 23 27  1  0
 24 26  1  0
 24 27  1  0
 24 29  2  0
  1 30  1  0
  1 31  1  0
  1 32  1  0
  2 33  1  0
  2 34  1  0
  3 35  1  0
  3 36  1  0
  4 37  1  0
  4 38  1  0
  5 39  1  0
  5 40  1  0
  6 41  1  0
  6 42  1  0
  7 43  1  0
  7 44  1  0
  8 45  1  0
  9 46  1  0
 10 47  1  0
 10 48  1  0
 11 49  1  0
 11 50  1  0
 12 51  1  0
 13 52  1  0
 14 53  1  0
 14 54  1  0
 15 55  1  0
 15 56  1  0
 16 57  1  0
 16 58  1  0
 17 59  1  0
 17 60  1  0
 18 61  1  0
 18 62  1  0
 19 63  1  0
 20 64  1  0
 21 65  1  0
 28 66  1  0
M  END
