
     RDKit          3D

100103  0  0  0  0  0  0  0  0999 V2000
   11.7412   -0.3426    1.5225 C   0  0  0  0  0  0  0  0  0  0  0  0
   -9.0616    1.9677    0.2693 C   0  0  0  0  0  0  0  0  0  0  0  0
   -3.3851    2.7902   -1.0082 C   0  0  0  0  0  0  0  0  0  0  0  0
    1.7219   -0.6644    1.8804 C   0  0  0  0  0  0  0  0  0  0  0  0
   -3.6524    0.7179    3.0109 C   0  0  0  0  0  0  0  0  0  0  0  0
   -2.1564   -1.2105    3.5736 C   0  0  0  0  0  0  0  0  0  0  0  0
   10.9352   -1.4398    0.8432 C   0  0  0  0  0  0  0  0  0  0  0  0
    9.4354   -1.3769    1.1424 C   0  0  0  0  0  0  0  0  0  0  0  0
    8.7521   -0.1423    0.5497 C   0  0  0  0  0  0  0  0  0  0  0  0
    7.2536   -0.0722    0.8625 C   0  0  0  0  0  0  0  0  0  0  0  0
    6.3949   -1.1998    0.2806 C   0  0  0  0  0  0  0  0  0  0  0  0
    6.4807   -1.4019   -1.2357 C   0  0  0  0  0  0  0  0  0  0  0  0
    6.2334   -0.1761   -2.1222 C   0  0  0  0  0  0  0  0  0  0  0  0
    4.7644    0.1907   -2.3672 C   0  0  0  0  0  0  0  0  0  0  0  0
    4.0528    0.7972   -1.1591 C   0  0  0  0  0  0  0  0  0  0  0  0
    2.7726    1.5594   -1.5198 C   0  0  0  0  0  0  0  0  0  0  0  0
    1.6841    0.6775   -2.1396 C   0  0  0  0  0  0  0  0  0  0  0  0
    0.4222    1.4665   -2.4770 C   0  0  0  0  0  0  0  0  0  0  0  0
   -6.5687    1.5392   -0.1481 C   0  0  0  0  0  0  0  0  0  0  0  0
   -5.4660   -1.3264    0.9497 C   0  0  0  0  0  0  0  0  0  0  0  0
   -6.6551   -1.6603   -1.1969 C   0  0  0  0  0  0  0  0  0  0  0  0
   -7.8084   -2.1901    1.0369 C   0  0  0  0  0  0  0  0  0  0  0  0
   -7.8769    1.3668   -0.3770 C   0  0  0  0  0  0  0  0  0  0  0  0
   -3.4235    1.5559   -0.0821 C   0  0  0  0  0  0  0  0  0  0  0  0
    0.4145    0.0623    1.9546 C   0  0  0  0  0  0  0  0  0  0  0  0
   -6.5830   -1.7162    0.3094 C   0  0  0  0  0  0  0  0  0  0  0  0
   -4.1911   -0.9254    0.2342 C   0  0  0  0  0  0  0  0  0  0  0  0
   -5.6735    0.8182   -1.1350 C   0  0  0  0  0  0  0  0  0  0  0  0
   -0.3216    1.9080   -1.2417 C   0  0  0  0  0  0  0  0  0  0  0  0
   -2.9793   -1.0801    1.1300 C   0  0  0  0  0  0  0  0  0  0  0  0
   -7.9658    0.4171   -1.5055 C   0  0  0  0  0  0  0  0  0  0  0  0
   -1.9790    1.1834    0.3413 C   0  0  0  0  0  0  0  0  0  0  0  0
   -2.7473   -0.3587    2.4641 C   0  0  0  0  0  0  0  0  0  0  0  0
   -6.6137   -0.2376   -1.7814 C   0  0  0  0  0  0  0  0  0  0  0  0
   -4.2352    0.3545   -0.6867 C   0  0  0  0  0  0  0  0  0  0  0  0
   -1.8823   -0.0545    1.2199 C   0  0  0  0  0  0  0  0  0  0  0  0
   -8.0296   -3.5515    0.7141 O   0  0  0  0  0  0  0  0  0  0  0  0
    0.2292    1.0872    2.5947 O   0  0  0  0  0  0  0  0  0  0  0  0
   -0.1601    2.9926   -0.7005 O   0  0  0  0  0  0  0  0  0  0  0  0
   -8.9954    0.1790   -2.1190 O   0  0  0  0  0  0  0  0  0  0  0  0
   -6.3338   -0.3331   -3.1772 O   0  0  0  0  0  0  0  0  0  0  0  0
   -3.5472   -0.0097   -1.9165 O   0  0  0  0  0  0  0  0  0  0  0  0
   -1.1667    0.9305   -0.8298 O   0  0  0  0  0  0  0  0  0  0  0  0
   -0.5387   -0.6205    1.2565 O   0  0  0  0  0  0  0  0  0  0  0  0
   11.4851    0.6456    1.1298 H   0  0  0  0  0  0  0  0  0  0  0  0
   11.5708   -0.3413    2.6034 H   0  0  0  0  0  0  0  0  0  0  0  0
   12.8104   -0.4995    1.3487 H   0  0  0  0  0  0  0  0  0  0  0  0
   -9.6547    2.5285   -0.4600 H   0  0  0  0  0  0  0  0  0  0  0  0
   -8.7718    2.6568    1.0697 H   0  0  0  0  0  0  0  0  0  0  0  0
   -9.6944    1.1896    0.7079 H   0  0  0  0  0  0  0  0  0  0  0  0
   -3.0076    2.5477   -2.0057 H   0  0  0  0  0  0  0  0  0  0  0  0
   -2.7532    3.5755   -0.5805 H   0  0  0  0  0  0  0  0  0  0  0  0
   -4.3766    3.2364   -1.1247 H   0  0  0  0  0  0  0  0  0  0  0  0
    1.7022   -1.5231    2.5585 H   0  0  0  0  0  0  0  0  0  0  0  0
    2.5314    0.0152    2.1696 H   0  0  0  0  0  0  0  0  0  0  0  0
    1.9117   -0.9968    0.8554 H   0  0  0  0  0  0  0  0  0  0  0  0
   -3.9451    0.4980    4.0435 H   0  0  0  0  0  0  0  0  0  0  0  0
   -3.1371    1.6830    3.0286 H   0  0  0  0  0  0  0  0  0  0  0  0
   -4.5852    0.8174    2.4560 H   0  0  0  0  0  0  0  0  0  0  0  0
   -1.5635   -0.5910    4.2543 H   0  0  0  0  0  0  0  0  0  0  0  0
   -2.9561   -1.6885    4.1502 H   0  0  0  0  0  0  0  0  0  0  0  0
   -1.5114   -2.0095    3.1940 H   0  0  0  0  0  0  0  0  0  0  0  0
   11.3156   -2.4092    1.1857 H   0  0  0  0  0  0  0  0  0  0  0  0
   11.1018   -1.3999   -0.2394 H   0  0  0  0  0  0  0  0  0  0  0  0
    8.9762   -2.2822    0.7308 H   0  0  0  0  0  0  0  0  0  0  0  0
    9.2763   -1.4049    2.2265 H   0  0  0  0  0  0  0  0  0  0  0  0
    8.9162   -0.1099   -0.5328 H   0  0  0  0  0  0  0  0  0  0  0  0
    9.2146    0.7628    0.9603 H   0  0  0  0  0  0  0  0  0  0  0  0
    6.8698    0.8932    0.5139 H   0  0  0  0  0  0  0  0  0  0  0  0
    7.1205   -0.0679    1.9520 H   0  0  0  0  0  0  0  0  0  0  0  0
    6.6713   -2.1451    0.7650 H   0  0  0  0  0  0  0  0  0  0  0  0
    5.3546   -1.0282    0.5723 H   0  0  0  0  0  0  0  0  0  0  0  0
    5.7902   -2.2041   -1.5237 H   0  0  0  0  0  0  0  0  0  0  0  0
    7.4833   -1.7818   -1.4670 H   0  0  0  0  0  0  0  0  0  0  0  0
    6.7859    0.6971   -1.7588 H   0  0  0  0  0  0  0  0  0  0  0  0
    6.6629   -0.4081   -3.1066 H   0  0  0  0  0  0  0  0  0  0  0  0
    4.2188   -0.6942   -2.7168 H   0  0  0  0  0  0  0  0  0  0  0  0
    4.7422    0.9171   -3.1898 H   0  0  0  0  0  0  0  0  0  0  0  0
    3.7991    0.0087   -0.4461 H   0  0  0  0  0  0  0  0  0  0  0  0
    4.7271    1.4946   -0.6479 H   0  0  0  0  0  0  0  0  0  0  0  0
    3.0189    2.3795   -2.2043 H   0  0  0  0  0  0  0  0  0  0  0  0
    2.3919    2.0207   -0.6022 H   0  0  0  0  0  0  0  0  0  0  0  0
    1.4419   -0.1442   -1.4568 H   0  0  0  0  0  0  0  0  0  0  0  0
    2.0608    0.2296   -3.0660 H   0  0  0  0  0  0  0  0  0  0  0  0
    0.6541    2.3545   -3.0758 H   0  0  0  0  0  0  0  0  0  0  0  0
   -0.2540    0.8565   -3.0880 H   0  0  0  0  0  0  0  0  0  0  0  0
   -6.1929    2.2225    0.6024 H   0  0  0  0  0  0  0  0  0  0  0  0
   -5.4342   -1.3769    2.0363 H   0  0  0  0  0  0  0  0  0  0  0  0
   -5.8462   -2.2657   -1.6277 H   0  0  0  0  0  0  0  0  0  0  0  0
   -7.5653   -2.1673   -1.5474 H   0  0  0  0  0  0  0  0  0  0  0  0
   -7.7084   -2.1041    2.1234 H   0  0  0  0  0  0  0  0  0  0  0  0
   -8.6869   -1.6107    0.7372 H   0  0  0  0  0  0  0  0  0  0  0  0
   -3.9462    1.8972    0.8118 H   0  0  0  0  0  0  0  0  0  0  0  0
   -4.0265   -1.7530   -0.4750 H   0  0  0  0  0  0  0  0  0  0  0  0
   -5.4911    1.5523   -1.9369 H   0  0  0  0  0  0  0  0  0  0  0  0
   -2.6500   -2.1194    1.0908 H   0  0  0  0  0  0  0  0  0  0  0  0
   -1.5631    2.0193    0.9164 H   0  0  0  0  0  0  0  0  0  0  0  0
   -7.2216   -4.0347    0.9560 H   0  0  0  0  0  0  0  0  0  0  0  0
   -7.1574   -0.6556   -3.5963 H   0  0  0  0  0  0  0  0  0  0  0  0
   -4.1960   -0.3539   -2.5624 H   0  0  0  0  0  0  0  0  0  0  0  0
  1  7  1  0
  2 23  1  0
  3 24  1  0
  4 25  1  0
  5 33  1  0
  6 33  1  0
  7  8  1  0
  8  9  1  0
  9 10  1  0
 10 11  1  0
 11 12  1  0
 12 13  1  0
 13 14  1  0
 14 15  1  0
 15 16  1  0
 16 17  1  0
 17 18  1  0
 18 29  1  0
 19 23  2  0
 19 28  1  0
 20 26  2  0
 20 27  1  0
 21 26  1  0
 21 34  1  0
 22 26  1  0
 22 37  1  0
 23 31  1  0
 24 32  1  0
 24 35  1  0
 25 38  2  0
 25 44  1  0
 27 30  1  0
 27 35  1  0
 28 34  1  0
 28 35  1  0
 29 39  2  0
 29 43  1  0
 30 33  1  0
 30 36  1  0
 31 34  1  0
 31 40  2  0
 32 36  1  0
 32 43  1  0
 33 36  1  0
 34 41  1  0
 35 42  1  0
 36 44  1  0
  1 45  1  0
  1 46  1  0
  1 47  1  0
  2 48  1  0
  2 49  1  0
  2 50  1  0
  3 51  1  0
  3 52  1  0
  3 53  1  0
  4 54  1  0
  4 55  1  0
  4 56  1  0
  5 57  1  0
  5 58  1  0
  5 59  1  0
  6 60  1  0
  6 61  1  0
  6 62  1  0
  7 63  1  0
  7 64  1  0
  8 65  1  0
  8 66  1  0
  9 67  1  0
  9 68  1  0
 10 69  1  0
 10 70  1  0
 11 71  1  0
 11 72  1  0
 12 73  1  0
 12 74  1  0
 13 75  1  0
 13 76  1  0
 14 77  1  0
 14 78  1  0
 15 79  1  0
 15 80  1  0
 16 81  1  0
 16 82  1  0
 17 83  1  0
 17 84  1  0
 18 85  1  0
 18 86  1  0
 19 87  1  0
 20 88  1  0
 21 89  1  0
 21 90  1  0
 22 91  1  0
 22 92  1  0
 24 93  1  0
 27 94  1  0
 28 95  1  0
 30 96  1  0
 32 97  1  0
 37 98  1  0
 41 99  1  0
 42100  1  0
M  END
