
     RDKit          3D

 52 55  0  0  0  0  0  0  0  0999 V2000
   -5.8288    2.0223   -0.5410 C   0  0  0  0  0  0  0  0  0  0  0  0
    3.1131    1.8071    2.7523 C   0  0  0  0  0  0  0  0  0  0  0  0
   -3.0574    1.7614   -3.9132 C   0  0  0  0  0  0  0  0  0  0  0  0
   -2.1078    0.7545   -3.9715 C   0  0  0  0  0  0  0  0  0  0  0  0
    2.1656   -4.5776   -0.4864 C   0  0  0  0  0  0  0  0  0  0  0  0
    3.2493   -3.8094   -0.0762 C   0  0  0  0  0  0  0  0  0  0  0  0
    4.5805    1.8163    2.3167 C   0  0  0  0  0  0  0  0  0  0  0  0
    2.3443    0.5748    2.2681 C   0  0  0  0  0  0  0  0  0  0  0  0
   -3.9263    1.8328   -2.8234 C   0  0  0  0  0  0  0  0  0  0  0  0
   -2.0246   -0.1749   -2.9362 C   0  0  0  0  0  0  0  0  0  0  0  0
    0.8954   -4.0053   -0.6055 C   0  0  0  0  0  0  0  0  0  0  0  0
    3.0947   -2.4534    0.2244 C   0  0  0  0  0  0  0  0  0  0  0  0
   -4.6751    0.0081    0.3786 C   0  0  0  0  0  0  0  0  0  0  0  0
   -3.7123   -0.9907    0.3336 C   0  0  0  0  0  0  0  0  0  0  0  0
    5.3312    2.9949    2.9158 C   0  0  0  0  0  0  0  0  0  0  0  0
    2.1873    0.5207    0.7492 C   0  0  0  0  0  0  0  0  0  0  0  0
    0.0210   -0.5210    0.0738 C   0  0  0  0  0  0  0  0  0  0  0  0
   -4.7615    0.9614   -0.6482 C   0  0  0  0  0  0  0  0  0  0  0  0
   -3.8698    0.9053   -1.7577 C   0  0  0  0  0  0  0  0  0  0  0  0
   -2.8858   -0.1181   -1.8126 C   0  0  0  0  0  0  0  0  0  0  0  0
    0.7067   -2.6375   -0.3083 C   0  0  0  0  0  0  0  0  0  0  0  0
   -2.8193   -1.0411   -0.7403 C   0  0  0  0  0  0  0  0  0  0  0  0
   -0.4336   -1.7658   -0.3293 C   0  0  0  0  0  0  0  0  0  0  0  0
    1.8147   -1.8869    0.1002 C   0  0  0  0  0  0  0  0  0  0  0  0
   -1.8057   -2.1172   -0.6966 C   0  0  0  0  0  0  0  0  0  0  0  0
    5.3386    2.8774    4.2695 F   0  0  0  0  0  0  0  0  0  0  0  0
    1.3657   -0.6041    0.3247 N   0  0  0  0  0  0  0  0  0  0  0  0
   -2.1705   -3.2630   -0.9470 O   0  0  0  0  0  0  0  0  0  0  0  0
   -5.3755    3.0188   -0.5296 H   0  0  0  0  0  0  0  0  0  0  0  0
   -6.4095    1.9190    0.3820 H   0  0  0  0  0  0  0  0  0  0  0  0
   -6.5291    1.9429   -1.3787 H   0  0  0  0  0  0  0  0  0  0  0  0
    2.6146    2.7162    2.3942 H   0  0  0  0  0  0  0  0  0  0  0  0
    3.0627    1.8309    3.8480 H   0  0  0  0  0  0  0  0  0  0  0  0
   -3.1318    2.4890   -4.7172 H   0  0  0  0  0  0  0  0  0  0  0  0
   -1.4340    0.6840   -4.8215 H   0  0  0  0  0  0  0  0  0  0  0  0
    2.3013   -5.6315   -0.7155 H   0  0  0  0  0  0  0  0  0  0  0  0
    4.2303   -4.2699    0.0139 H   0  0  0  0  0  0  0  0  0  0  0  0
    5.0590    0.8857    2.6428 H   0  0  0  0  0  0  0  0  0  0  0  0
    4.6540    1.8680    1.2257 H   0  0  0  0  0  0  0  0  0  0  0  0
    2.8412   -0.3342    2.6291 H   0  0  0  0  0  0  0  0  0  0  0  0
    1.3500    0.5847    2.7330 H   0  0  0  0  0  0  0  0  0  0  0  0
   -4.6629    2.6331   -2.8231 H   0  0  0  0  0  0  0  0  0  0  0  0
   -1.2741   -0.9593   -3.0242 H   0  0  0  0  0  0  0  0  0  0  0  0
    0.0539   -4.6158   -0.9248 H   0  0  0  0  0  0  0  0  0  0  0  0
    3.9477   -1.8659    0.5474 H   0  0  0  0  0  0  0  0  0  0  0  0
   -5.3632    0.0385    1.2212 H   0  0  0  0  0  0  0  0  0  0  0  0
   -3.6550   -1.7274    1.1318 H   0  0  0  0  0  0  0  0  0  0  0  0
    6.3702    3.0078    2.5749 H   0  0  0  0  0  0  0  0  0  0  0  0
    4.8619    3.9486    2.6576 H   0  0  0  0  0  0  0  0  0  0  0  0
    1.7094    1.4345    0.3767 H   0  0  0  0  0  0  0  0  0  0  0  0
    3.1529    0.4292    0.2415 H   0  0  0  0  0  0  0  0  0  0  0  0
   -0.5040    0.4176    0.2015 H   0  0  0  0  0  0  0  0  0  0  0  0
  1 18  1  0
  2  7  1  0
  2  8  1  0
  3  4  2  0
  3  9  1  0
  4 10  1  0
  5  6  2  0
  5 11  1  0
  6 12  1  0
  7 15  1  0
  8 16  1  0
  9 19  2  0
 10 20  2  0
 11 21  2  0
 12 24  2  0
 13 14  1  0
 13 18  2  0
 14 22  2  0
 15 26  1  0
 16 27  1  0
 17 23  2  0
 17 27  1  0
 18 19  1  0
 19 20  1  0
 20 22  1  0
 21 23  1  0
 21 24  1  0
 22 25  1  0
 23 25  1  0
 24 27  1  0
 25 28  2  0
  1 29  1  0
  1 30  1  0
  1 31  1  0
  2 32  1  0
  2 33  1  0
  3 34  1  0
  4 35  1  0
  5 36  1  0
  6 37  1  0
  7 38  1  0
  7 39  1  0
  8 40  1  0
  8 41  1  0
  9 42  1  0
 10 43  1  0
 11 44  1  0
 12 45  1  0
 13 46  1  0
 14 47  1  0
 15 48  1  0
 15 49  1  0
 16 50  1  0
 16 51  1  0
 17 52  1  0
M  END
