
     RDKit          3D

 60 62  0  0  0  0  0  0  0  0999 V2000
   -0.9097   -3.1537   -3.3252 C   0  0  0  0  0  0  0  0  0  0  0  0
   -3.4414   -1.4060    2.8513 C   0  0  0  0  0  0  0  0  0  0  0  0
   -0.2263   -2.6313   -2.2979 C   0  0  0  0  0  0  0  0  0  0  0  0
   -3.1749   -1.9616    1.4642 C   0  0  0  0  0  0  0  0  0  0  0  0
    7.8250    0.6421    0.2266 C   0  0  0  0  0  0  0  0  0  0  0  0
   -5.3369    3.3747   -1.5288 C   0  0  0  0  0  0  0  0  0  0  0  0
    7.2691   -0.5697   -0.1779 C   0  0  0  0  0  0  0  0  0  0  0  0
    7.0444    1.5732    0.9085 C   0  0  0  0  0  0  0  0  0  0  0  0
   -4.0417    3.1644   -1.9887 C   0  0  0  0  0  0  0  0  0  0  0  0
   -5.8688    2.5225   -0.5694 C   0  0  0  0  0  0  0  0  0  0  0  0
   -0.8690   -1.9613   -1.1117 C   0  0  0  0  0  0  0  0  0  0  0  0
    5.9310   -0.8522    0.1003 C   0  0  0  0  0  0  0  0  0  0  0  0
    5.7057    1.2937    1.1868 C   0  0  0  0  0  0  0  0  0  0  0  0
   -3.2770    2.1034   -1.4861 C   0  0  0  0  0  0  0  0  0  0  0  0
   -5.1022    1.4642   -0.0684 C   0  0  0  0  0  0  0  0  0  0  0  0
    3.6826   -0.2205    1.0675 C   0  0  0  0  0  0  0  0  0  0  0  0
   -0.7483    0.1123    1.3462 C   0  0  0  0  0  0  0  0  0  0  0  0
    2.7811    0.2605   -0.0827 C   0  0  0  0  0  0  0  0  0  0  0  0
    0.7103    0.5589    1.1804 C   0  0  0  0  0  0  0  0  0  0  0  0
    0.6472    0.1053   -1.2005 C   0  0  0  0  0  0  0  0  0  0  0  0
    5.1381    0.0758    0.7888 C   0  0  0  0  0  0  0  0  0  0  0  0
   -0.8057   -0.4201   -1.1571 C   0  0  0  0  0  0  0  0  0  0  0  0
   -3.7899    1.2270   -0.5154 C   0  0  0  0  0  0  0  0  0  0  0  0
   -1.5159    0.2919    0.0280 C   0  0  0  0  0  0  0  0  0  0  0  0
   -3.7073   -1.0334    0.3937 C   0  0  0  0  0  0  0  0  0  0  0  0
    1.3649   -0.1426    0.0648 N   0  0  0  0  0  0  0  0  0  0  0  0
   -3.0081    0.1387    0.0638 N   0  0  0  0  0  0  0  0  0  0  0  0
   -4.7966   -1.3335   -0.1109 O   0  0  0  0  0  0  0  0  0  0  0  0
   -0.3933   -3.6394   -4.1474 H   0  0  0  0  0  0  0  0  0  0  0  0
   -1.9945   -3.1101   -3.3710 H   0  0  0  0  0  0  0  0  0  0  0  0
   -3.0004   -0.4168    2.9938 H   0  0  0  0  0  0  0  0  0  0  0  0
   -4.5191   -1.3066    3.0234 H   0  0  0  0  0  0  0  0  0  0  0  0
   -3.0378   -2.0775    3.6149 H   0  0  0  0  0  0  0  0  0  0  0  0
    0.8595   -2.7094   -2.2915 H   0  0  0  0  0  0  0  0  0  0  0  0
   -2.1310   -2.2118    1.3096 H   0  0  0  0  0  0  0  0  0  0  0  0
   -3.7054   -2.9177    1.3640 H   0  0  0  0  0  0  0  0  0  0  0  0
    8.8671    0.8608    0.0100 H   0  0  0  0  0  0  0  0  0  0  0  0
   -5.9325    4.1946   -1.9210 H   0  0  0  0  0  0  0  0  0  0  0  0
    7.8785   -1.2947   -0.7112 H   0  0  0  0  0  0  0  0  0  0  0  0
    7.4790    2.5182    1.2239 H   0  0  0  0  0  0  0  0  0  0  0  0
   -3.6233    3.8203   -2.7477 H   0  0  0  0  0  0  0  0  0  0  0  0
   -6.8818    2.6738   -0.2055 H   0  0  0  0  0  0  0  0  0  0  0  0
   -0.3864   -2.3493   -0.2077 H   0  0  0  0  0  0  0  0  0  0  0  0
   -1.9147   -2.2812   -1.0705 H   0  0  0  0  0  0  0  0  0  0  0  0
    5.5099   -1.8011   -0.2241 H   0  0  0  0  0  0  0  0  0  0  0  0
    5.1101    2.0326    1.7175 H   0  0  0  0  0  0  0  0  0  0  0  0
   -2.2890    1.9711   -1.9142 H   0  0  0  0  0  0  0  0  0  0  0  0
   -5.5527    0.8355    0.6961 H   0  0  0  0  0  0  0  0  0  0  0  0
    3.5563   -1.3002    1.2213 H   0  0  0  0  0  0  0  0  0  0  0  0
    3.4041    0.2576    2.0138 H   0  0  0  0  0  0  0  0  0  0  0  0
   -1.2148    0.7149    2.1339 H   0  0  0  0  0  0  0  0  0  0  0  0
   -0.7337   -0.9193    1.6955 H   0  0  0  0  0  0  0  0  0  0  0  0
    3.1732   -0.1781   -1.0104 H   0  0  0  0  0  0  0  0  0  0  0  0
    2.8621    1.3502   -0.1975 H   0  0  0  0  0  0  0  0  0  0  0  0
    1.2211    0.3420    2.1242 H   0  0  0  0  0  0  0  0  0  0  0  0
    0.7506    1.6461    1.0343 H   0  0  0  0  0  0  0  0  0  0  0  0
    1.1785   -0.3672   -2.0346 H   0  0  0  0  0  0  0  0  0  0  0  0
    0.6372    1.1816   -1.4239 H   0  0  0  0  0  0  0  0  0  0  0  0
   -1.2943   -0.1073   -2.0895 H   0  0  0  0  0  0  0  0  0  0  0  0
   -1.3621    1.3655   -0.1437 H   0  0  0  0  0  0  0  0  0  0  0  0
  1  3  2  3
  2  4  1  0
  3 11  1  0
  4 25  1  0
  5  7  2  0
  5  8  1  0
  6  9  2  0
  6 10  1  0
  7 12  1  0
  8 13  2  0
  9 14  1  0
 10 15  2  0
 11 22  1  0
 12 21  2  0
 13 21  1  0
 14 23  2  0
 15 23  1  0
 16 18  1  0
 16 21  1  0
 17 19  1  0
 17 24  1  0
 18 26  1  0
 19 26  1  0
 20 22  1  0
 20 26  1  0
 22 24  1  0
 23 27  1  0
 24 27  1  0
 25 27  1  0
 25 28  2  0
  1 29  1  0
  1 30  1  0
  2 31  1  0
  2 32  1  0
  2 33  1  0
  3 34  1  0
  4 35  1  0
  4 36  1  0
  5 37  1  0
  6 38  1  0
  7 39  1  0
  8 40  1  0
  9 41  1  0
 10 42  1  0
 11 43  1  0
 11 44  1  0
 12 45  1  0
 13 46  1  0
 14 47  1  0
 15 48  1  0
 16 49  1  0
 16 50  1  0
 17 51  1  0
 17 52  1  0
 18 53  1  0
 18 54  1  0
 19 55  1  0
 19 56  1  0
 20 57  1  0
 20 58  1  0
 22 59  1  0
 24 60  1  0
M  END
