
     RDKit          3D

 66 68  0  0  0  0  0  0  0  0999 V2000
   -4.5536   -3.1708    1.7333 C   0  0  0  0  0  0  0  0  0  0  0  0
    1.7855   -2.2206   -0.7545 C   0  0  0  0  0  0  0  0  0  0  0  0
    4.8801   -0.7874   -3.5593 C   0  0  0  0  0  0  0  0  0  0  0  0
    4.9881    1.3913    3.5279 C   0  0  0  0  0  0  0  0  0  0  0  0
   -5.0874   -2.5263    0.4683 C   0  0  0  0  0  0  0  0  0  0  0  0
   -5.5207    3.8863   -0.7447 C   0  0  0  0  0  0  0  0  0  0  0  0
   -4.2091    3.6185   -0.3750 C   0  0  0  0  0  0  0  0  0  0  0  0
   -6.4323    2.8423   -0.8169 C   0  0  0  0  0  0  0  0  0  0  0  0
   -3.8117    2.3076   -0.0748 C   0  0  0  0  0  0  0  0  0  0  0  0
   -6.0291    1.5353   -0.5158 C   0  0  0  0  0  0  0  0  0  0  0  0
   -2.1978   -0.2218   -1.2507 C   0  0  0  0  0  0  0  0  0  0  0  0
   -2.0737   -0.1372    1.3113 C   0  0  0  0  0  0  0  0  0  0  0  0
   -0.7843   -0.8214   -1.2820 C   0  0  0  0  0  0  0  0  0  0  0  0
   -0.6172    0.1678    0.9525 C   0  0  0  0  0  0  0  0  0  0  0  0
    2.0697    0.3154   -0.5981 C   0  0  0  0  0  0  0  0  0  0  0  0
    4.0175    0.7344    0.9470 C   0  0  0  0  0  0  0  0  0  0  0  0
    5.8601    0.0179   -1.0345 C   0  0  0  0  0  0  0  0  0  0  0  0
    1.3608   -0.9385   -0.0203 C   0  0  0  0  0  0  0  0  0  0  0  0
    3.5675    0.3414   -0.3342 C   0  0  0  0  0  0  0  0  0  0  0  0
   -4.7109    1.2323   -0.1281 C   0  0  0  0  0  0  0  0  0  0  0  0
   -2.8980   -0.5494    0.0758 C   0  0  0  0  0  0  0  0  0  0  0  0
    6.2747    0.4088    0.2471 C   0  0  0  0  0  0  0  0  0  0  0  0
    4.4988   -0.0203   -1.3281 C   0  0  0  0  0  0  0  0  0  0  0  0
    5.3784    0.7742    1.2547 C   0  0  0  0  0  0  0  0  0  0  0  0
   -5.3073   -1.0304    0.6395 C   0  0  0  0  0  0  0  0  0  0  0  0
   -0.1169   -0.8446    0.0264 N   0  0  0  0  0  0  0  0  0  0  0  0
   -4.3270   -0.1431    0.1482 N   0  0  0  0  0  0  0  0  0  0  0  0
    7.6992    0.4203    0.5100 N   0  0  0  0  0  4  0  0  0  0  0  0
   -6.3506   -0.6687    1.1936 O   0  0  0  0  0  0  0  0  0  0  0  0
    8.1355   -0.3973    1.3314 O   0  0  0  0  0  1  0  0  0  0  0  0
    8.3837    1.2076   -0.1591 O   0  0  0  0  0  0  0  0  0  0  0  0
    3.9739   -0.3948   -2.5351 O   0  0  0  0  0  0  0  0  0  0  0  0
    5.8955    1.1731    2.4541 O   0  0  0  0  0  0  0  0  0  0  0  0
   -4.4912   -4.2562    1.6081 H   0  0  0  0  0  0  0  0  0  0  0  0
   -3.5575   -2.8026    1.9897 H   0  0  0  0  0  0  0  0  0  0  0  0
   -5.2102   -2.9636    2.5850 H   0  0  0  0  0  0  0  0  0  0  0  0
    2.8487   -2.4290   -0.5967 H   0  0  0  0  0  0  0  0  0  0  0  0
    1.6134   -2.1510   -1.8337 H   0  0  0  0  0  0  0  0  0  0  0  0
    1.2337   -3.0886   -0.3758 H   0  0  0  0  0  0  0  0  0  0  0  0
    4.2906   -1.0591   -4.4403 H   0  0  0  0  0  0  0  0  0  0  0  0
    5.5387    0.0405   -3.8412 H   0  0  0  0  0  0  0  0  0  0  0  0
    5.4560   -1.6689   -3.2594 H   0  0  0  0  0  0  0  0  0  0  0  0
    4.3431    2.2526    3.3261 H   0  0  0  0  0  0  0  0  0  0  0  0
    4.3969    0.4934    3.7363 H   0  0  0  0  0  0  0  0  0  0  0  0
    5.5767    1.6181    4.4217 H   0  0  0  0  0  0  0  0  0  0  0  0
   -6.0658   -2.9642    0.2311 H   0  0  0  0  0  0  0  0  0  0  0  0
   -4.4638   -2.7481   -0.4020 H   0  0  0  0  0  0  0  0  0  0  0  0
   -5.8312    4.9018   -0.9740 H   0  0  0  0  0  0  0  0  0  0  0  0
   -3.4886    4.4301   -0.3115 H   0  0  0  0  0  0  0  0  0  0  0  0
   -7.4619    3.0341   -1.1080 H   0  0  0  0  0  0  0  0  0  0  0  0
   -2.7801    2.1793    0.2244 H   0  0  0  0  0  0  0  0  0  0  0  0
   -6.7786    0.7537   -0.6150 H   0  0  0  0  0  0  0  0  0  0  0  0
   -2.1142    0.8562   -1.4129 H   0  0  0  0  0  0  0  0  0  0  0  0
   -2.7809   -0.6142   -2.0930 H   0  0  0  0  0  0  0  0  0  0  0  0
   -2.5063    0.7196    1.8383 H   0  0  0  0  0  0  0  0  0  0  0  0
   -2.1006   -0.9579    2.0401 H   0  0  0  0  0  0  0  0  0  0  0  0
   -0.2097   -0.2619   -2.0281 H   0  0  0  0  0  0  0  0  0  0  0  0
   -0.8567   -1.8533   -1.6463 H   0  0  0  0  0  0  0  0  0  0  0  0
   -0.0385    0.1688    1.8840 H   0  0  0  0  0  0  0  0  0  0  0  0
   -0.5332    1.1737    0.5246 H   0  0  0  0  0  0  0  0  0  0  0  0
    1.8715    0.4158   -1.6711 H   0  0  0  0  0  0  0  0  0  0  0  0
    1.6539    1.2269   -0.1499 H   0  0  0  0  0  0  0  0  0  0  0  0
    3.2703    1.0156    1.6844 H   0  0  0  0  0  0  0  0  0  0  0  0
    6.6129   -0.2487   -1.7695 H   0  0  0  0  0  0  0  0  0  0  0  0
    1.6951   -1.0739    1.0177 H   0  0  0  0  0  0  0  0  0  0  0  0
   -2.8738   -1.6408    0.1070 H   0  0  0  0  0  0  0  0  0  0  0  0
  1  5  1  0
  2 18  1  0
  3 32  1  0
  4 33  1  0
  5 25  1  0
  6  7  2  0
  6  8  1  0
  7  9  1  0
  8 10  2  0
  9 20  2  0
 10 20  1  0
 11 13  1  0
 11 21  1  0
 12 14  1  0
 12 21  1  0
 13 26  1  0
 14 26  1  0
 15 18  1  0
 15 19  1  0
 16 19  2  0
 16 24  1  0
 17 22  1  0
 17 23  2  0
 18 26  1  0
 19 23  1  0
 20 27  1  0
 21 27  1  0
 22 24  2  0
 22 28  1  0
 23 32  1  0
 24 33  1  0
 25 27  1  0
 25 29  2  0
 28 30  1  0
 28 31  2  0
  1 34  1  0
  1 35  1  0
  1 36  1  0
  2 37  1  0
  2 38  1  0
  2 39  1  0
  3 40  1  0
  3 41  1  0
  3 42  1  0
  4 43  1  0
  4 44  1  0
  4 45  1  0
  5 46  1  0
  5 47  1  0
  6 48  1  0
  7 49  1  0
  8 50  1  0
  9 51  1  0
 10 52  1  0
 11 53  1  0
 11 54  1  0
 12 55  1  0
 12 56  1  0
 13 57  1  0
 13 58  1  0
 14 59  1  0
 14 60  1  0
 15 61  1  0
 15 62  1  0
 16 63  1  0
 17 64  1  0
 18 65  1  0
 21 66  1  0
M  CHG  2  28   1  30  -1
M  END
