
     RDKit          3D

 65 70  0  0  0  0  0  0  0  0999 V2000
    5.8911   -0.2036   -0.5701 C   0  0  0  0  0  0  0  0  0  0  0  0
    3.0443   -1.9838    0.0327 C   0  0  0  0  0  0  0  0  0  0  0  0
   -3.8756   -2.8700   -1.5690 C   0  0  0  0  0  0  0  0  0  0  0  0
    1.8607    2.8639   -1.5216 C   0  0  0  0  0  0  0  0  0  0  0  0
    4.6250    0.5945   -0.2886 C   0  0  0  0  0  0  0  0  0  0  0  0
   -4.1605    0.8127    2.0548 C   0  0  0  0  0  0  0  0  0  0  0  0
   -4.0971    2.2394    2.1282 C   0  0  0  0  0  0  0  0  0  0  0  0
    3.9430    0.2008    1.0280 C   0  0  0  0  0  0  0  0  0  0  0  0
    0.0718   -1.2368   -1.4654 C   0  0  0  0  0  0  0  0  0  0  0  0
    0.9715    0.0222   -1.6800 C   0  0  0  0  0  0  0  0  0  0  0  0
   -2.1635    0.5324   -1.8046 C   0  0  0  0  0  0  0  0  0  0  0  0
   -3.2497   -0.5619   -1.9291 C   0  0  0  0  0  0  0  0  0  0  0  0
   -3.1210   -1.3883    1.0815 C   0  0  0  0  0  0  0  0  0  0  0  0
    0.1074   -1.0773    0.9837 C   0  0  0  0  0  0  0  0  0  0  0  0
   -3.2870    0.1102    1.2315 C   0  0  0  0  0  0  0  0  0  0  0  0
   -3.1356    2.9796    1.4170 C   0  0  0  0  0  0  0  0  0  0  0  0
    1.3518   -0.0991    0.8003 C   0  0  0  0  0  0  0  0  0  0  0  0
   -2.1571   -1.8722   -0.1146 C   0  0  0  0  0  0  0  0  0  0  0  0
   -2.4127    0.8994    0.5311 C   0  0  0  0  0  0  0  0  0  0  0  0
   -2.2690    2.2856    0.6222 C   0  0  0  0  0  0  0  0  0  0  0  0
   -0.4045    1.4413    0.0062 C   0  0  0  0  0  0  0  0  0  0  0  0
    2.7536   -0.7994    0.9567 C   0  0  0  0  0  0  0  0  0  0  0  0
   -0.8687   -0.9918   -0.2367 C   0  0  0  0  0  0  0  0  0  0  0  0
   -1.4238    0.4103   -0.4369 C   0  0  0  0  0  0  0  0  0  0  0  0
    1.0196    0.9124   -0.4082 C   0  0  0  0  0  0  0  0  0  0  0  0
   -2.8066   -1.8827   -1.4540 N   0  0  0  0  0  0  0  0  0  0  0  0
   -3.0562    4.3250    1.5694 O   0  0  0  0  0  0  0  0  0  0  0  0
    2.6782   -1.3933    2.2852 O   0  0  0  0  0  0  0  0  0  0  0  0
    1.9834    1.9529   -0.4388 O   0  0  0  0  0  0  0  0  0  0  0  0
   -1.1077    2.7085   -0.0686 O   0  0  0  0  0  0  0  0  0  0  0  0
    6.6158   -0.0893    0.2424 H   0  0  0  0  0  0  0  0  0  0  0  0
    6.3621    0.1545   -1.4913 H   0  0  0  0  0  0  0  0  0  0  0  0
    5.6815   -1.2684   -0.6959 H   0  0  0  0  0  0  0  0  0  0  0  0
    2.2851   -2.7661    0.1232 H   0  0  0  0  0  0  0  0  0  0  0  0
    3.9800   -2.4742    0.3284 H   0  0  0  0  0  0  0  0  0  0  0  0
    3.1392   -1.7061   -1.0167 H   0  0  0  0  0  0  0  0  0  0  0  0
   -4.1833   -2.9735   -2.6156 H   0  0  0  0  0  0  0  0  0  0  0  0
   -3.5293   -3.8586   -1.2484 H   0  0  0  0  0  0  0  0  0  0  0  0
   -4.7625   -2.6063   -0.9843 H   0  0  0  0  0  0  0  0  0  0  0  0
    2.5558    3.6900   -1.3479 H   0  0  0  0  0  0  0  0  0  0  0  0
    2.1431    2.3806   -2.4610 H   0  0  0  0  0  0  0  0  0  0  0  0
    0.8518    3.2745   -1.5989 H   0  0  0  0  0  0  0  0  0  0  0  0
    4.9123    1.6515   -0.2243 H   0  0  0  0  0  0  0  0  0  0  0  0
    3.9487    0.5068   -1.1412 H   0  0  0  0  0  0  0  0  0  0  0  0
   -4.8928    0.2845    2.6606 H   0  0  0  0  0  0  0  0  0  0  0  0
   -4.7894    2.7662    2.7818 H   0  0  0  0  0  0  0  0  0  0  0  0
    3.5886    1.1153    1.5226 H   0  0  0  0  0  0  0  0  0  0  0  0
    4.7079   -0.1852    1.7160 H   0  0  0  0  0  0  0  0  0  0  0  0
    0.6845   -2.1276   -1.2980 H   0  0  0  0  0  0  0  0  0  0  0  0
   -0.4621   -1.4535   -2.3964 H   0  0  0  0  0  0  0  0  0  0  0  0
    1.9709   -0.2752   -2.0051 H   0  0  0  0  0  0  0  0  0  0  0  0
    0.5935    0.6126   -2.5219 H   0  0  0  0  0  0  0  0  0  0  0  0
   -1.4843    0.4486   -2.6557 H   0  0  0  0  0  0  0  0  0  0  0  0
   -2.6448    1.5106   -1.9400 H   0  0  0  0  0  0  0  0  0  0  0  0
   -3.5307   -0.6330   -2.9875 H   0  0  0  0  0  0  0  0  0  0  0  0
   -4.1550   -0.2432   -1.3974 H   0  0  0  0  0  0  0  0  0  0  0  0
   -4.1065   -1.8553    0.9889 H   0  0  0  0  0  0  0  0  0  0  0  0
   -2.6850   -1.7595    2.0180 H   0  0  0  0  0  0  0  0  0  0  0  0
   -0.4137   -0.8056    1.9101 H   0  0  0  0  0  0  0  0  0  0  0  0
    0.4323   -2.1136    1.1224 H   0  0  0  0  0  0  0  0  0  0  0  0
    1.3399    0.5261    1.7104 H   0  0  0  0  0  0  0  0  0  0  0  0
   -1.8432   -2.9000    0.1102 H   0  0  0  0  0  0  0  0  0  0  0  0
   -0.2520    1.4474    1.1034 H   0  0  0  0  0  0  0  0  0  0  0  0
   -2.2961    4.6123    1.0293 H   0  0  0  0  0  0  0  0  0  0  0  0
    3.5321   -1.8184    2.4762 H   0  0  0  0  0  0  0  0  0  0  0  0
  1  5  1  0
  2 22  1  0
  3 26  1  0
  4 29  1  0
  5  8  1  0
  6  7  2  0
  6 15  1  0
  7 16  1  0
  8 22  1  0
  9 10  1  0
  9 23  1  0
 10 25  1  0
 11 12  1  0
 11 24  1  0
 12 26  1  0
 13 15  1  0
 13 18  1  0
 14 17  1  0
 14 23  1  0
 15 19  2  0
 16 20  2  0
 16 27  1  0
 17 22  1  0
 17 25  1  0
 18 23  1  0
 18 26  1  0
 19 20  1  0
 19 24  1  0
 20 30  1  0
 21 24  1  0
 21 25  1  0
 21 30  1  0
 22 28  1  0
 23 24  1  0
 25 29  1  0
  1 31  1  0
  1 32  1  0
  1 33  1  0
  2 34  1  0
  2 35  1  0
  2 36  1  0
  3 37  1  0
  3 38  1  0
  3 39  1  0
  4 40  1  0
  4 41  1  0
  4 42  1  0
  5 43  1  0
  5 44  1  0
  6 45  1  0
  7 46  1  0
  8 47  1  0
  8 48  1  0
  9 49  1  0
  9 50  1  0
 10 51  1  0
 10 52  1  0
 11 53  1  0
 11 54  1  0
 12 55  1  0
 12 56  1  0
 13 57  1  0
 13 58  1  0
 14 59  1  0
 14 60  1  0
 17 61  1  0
 18 62  1  0
 21 63  1  0
 27 64  1  0
 28 65  1  0
M  END
