
     RDKit          3D

 66 67  0  0  0  0  0  0  0  0999 V2000
    0.6571   -2.2382   -1.9303 C   0  0  0  0  0  0  0  0  0  0  0  0
    2.7052   -0.6463    1.2905 C   0  0  0  0  0  0  0  0  0  0  0  0
    9.9286   -1.0079    0.4561 C   0  0  0  0  0  0  0  0  0  0  0  0
   -8.0047   -2.0548   -1.9398 C   0  0  0  0  0  0  0  0  0  0  0  0
   -7.6794   -0.9547    3.3919 C   0  0  0  0  0  0  0  0  0  0  0  0
    0.3449   -1.2723   -0.7904 C   0  0  0  0  0  0  0  0  0  0  0  0
   -0.2509    1.8114   -0.9822 C   0  0  0  0  0  0  0  0  0  0  0  0
   -0.8331    3.0699   -0.3246 C   0  0  0  0  0  0  0  0  0  0  0  0
    5.5776   -0.9594   -1.5733 C   0  0  0  0  0  0  0  0  0  0  0  0
    5.9692    0.4868    0.3144 C   0  0  0  0  0  0  0  0  0  0  0  0
   -4.8245    0.3573   -0.5570 C   0  0  0  0  0  0  0  0  0  0  0  0
    6.8890   -1.4291   -1.4790 C   0  0  0  0  0  0  0  0  0  0  0  0
    7.2848    0.0168    0.4042 C   0  0  0  0  0  0  0  0  0  0  0  0
   -5.8565   -0.4525   -1.0418 C   0  0  0  0  0  0  0  0  0  0  0  0
    0.6781    1.0210   -0.0482 C   0  0  0  0  0  0  0  0  0  0  0  0
   -1.7682    2.7850    0.8484 C   0  0  0  0  0  0  0  0  0  0  0  0
    3.6792    0.5023   -0.7735 C   0  0  0  0  0  0  0  0  0  0  0  0
   -5.7094    0.1411    1.6855 C   0  0  0  0  0  0  0  0  0  0  0  0
    2.6233   -0.5044   -0.2393 C   0  0  0  0  0  0  0  0  0  0  0  0
    5.1036    0.0020   -0.6737 C   0  0  0  0  0  0  0  0  0  0  0  0
   -4.7470    0.6589    0.8071 C   0  0  0  0  0  0  0  0  0  0  0  0
    7.7501   -0.9444   -0.4927 C   0  0  0  0  0  0  0  0  0  0  0  0
   -6.8191   -0.9704   -0.1690 C   0  0  0  0  0  0  0  0  0  0  0  0
   -6.7437   -0.6723    1.2078 C   0  0  0  0  0  0  0  0  0  0  0  0
   -3.6700    1.5154    1.3751 C   0  0  0  0  0  0  0  0  0  0  0  0
    1.2761   -0.1287   -0.7498 N   0  0  0  0  0  0  0  0  0  0  0  0
   -3.5683    1.7747    2.5636 O   0  0  0  0  0  0  0  0  0  0  0  0
    9.0057   -1.4855   -0.5146 O   0  0  0  0  0  0  0  0  0  0  0  0
   -7.8620   -1.7743   -0.5549 O   0  0  0  0  0  0  0  0  0  0  0  0
   -7.7255   -1.2207    1.9966 O   0  0  0  0  0  0  0  0  0  0  0  0
   -2.8414    1.9508    0.3946 O   0  0  0  0  0  0  0  0  0  0  0  0
   -0.1376   -2.9877   -2.0090 H   0  0  0  0  0  0  0  0  0  0  0  0
    1.5960   -2.7760   -1.7751 H   0  0  0  0  0  0  0  0  0  0  0  0
    0.7131   -1.7109   -2.8888 H   0  0  0  0  0  0  0  0  0  0  0  0
    2.6013    0.3178    1.7991 H   0  0  0  0  0  0  0  0  0  0  0  0
    3.6695   -1.0715    1.5880 H   0  0  0  0  0  0  0  0  0  0  0  0
    1.9323   -1.3190    1.6752 H   0  0  0  0  0  0  0  0  0  0  0  0
   10.8750   -1.5366    0.3063 H   0  0  0  0  0  0  0  0  0  0  0  0
   10.1207    0.0625    0.3247 H   0  0  0  0  0  0  0  0  0  0  0  0
    9.5824   -1.2255    1.4727 H   0  0  0  0  0  0  0  0  0  0  0  0
   -8.1639   -1.1371   -2.5157 H   0  0  0  0  0  0  0  0  0  0  0  0
   -7.1450   -2.6170   -2.3193 H   0  0  0  0  0  0  0  0  0  0  0  0
   -8.8929   -2.6819   -2.0640 H   0  0  0  0  0  0  0  0  0  0  0  0
   -7.8012    0.1146    3.5929 H   0  0  0  0  0  0  0  0  0  0  0  0
   -8.5179   -1.4782    3.8609 H   0  0  0  0  0  0  0  0  0  0  0  0
   -6.7571   -1.3401    3.8379 H   0  0  0  0  0  0  0  0  0  0  0  0
    0.3229   -1.8112    0.1637 H   0  0  0  0  0  0  0  0  0  0  0  0
   -0.6796   -0.9223   -0.9615 H   0  0  0  0  0  0  0  0  0  0  0  0
   -1.0704    1.1847   -1.3504 H   0  0  0  0  0  0  0  0  0  0  0  0
    0.3193    2.1246   -1.8664 H   0  0  0  0  0  0  0  0  0  0  0  0
   -0.0213    3.7278    0.0064 H   0  0  0  0  0  0  0  0  0  0  0  0
   -1.3959    3.6128   -1.0944 H   0  0  0  0  0  0  0  0  0  0  0  0
    4.9296   -1.3481   -2.3556 H   0  0  0  0  0  0  0  0  0  0  0  0
    5.6263    1.2339    1.0263 H   0  0  0  0  0  0  0  0  0  0  0  0
   -4.0896    0.7442   -1.2594 H   0  0  0  0  0  0  0  0  0  0  0  0
    7.2441   -2.1795   -2.1820 H   0  0  0  0  0  0  0  0  0  0  0  0
    7.9190    0.4266    1.1837 H   0  0  0  0  0  0  0  0  0  0  0  0
   -5.8784   -0.6607   -2.1069 H   0  0  0  0  0  0  0  0  0  0  0  0
    0.1496    0.6870    0.8522 H   0  0  0  0  0  0  0  0  0  0  0  0
    1.4527    1.7208    0.2851 H   0  0  0  0  0  0  0  0  0  0  0  0
   -2.1844    3.7301    1.2170 H   0  0  0  0  0  0  0  0  0  0  0  0
   -1.2249    2.2974    1.6656 H   0  0  0  0  0  0  0  0  0  0  0  0
    3.5960    1.4677   -0.2585 H   0  0  0  0  0  0  0  0  0  0  0  0
    3.4825    0.7158   -1.8339 H   0  0  0  0  0  0  0  0  0  0  0  0
   -5.6299    0.3878    2.7403 H   0  0  0  0  0  0  0  0  0  0  0  0
    2.8887   -1.4812   -0.6585 H   0  0  0  0  0  0  0  0  0  0  0  0
  1  6  1  0
  2 19  1  0
  3 28  1  0
  4 29  1  0
  5 30  1  0
  6 26  1  0
  7  8  1  0
  7 15  1  0
  8 16  1  0
  9 12  2  0
  9 20  1  0
 10 13  1  0
 10 20  2  0
 11 14  2  0
 11 21  1  0
 12 22  1  0
 13 22  2  0
 14 23  1  0
 15 26  1  0
 16 31  1  0
 17 19  1  0
 17 20  1  0
 18 21  2  0
 18 24  1  0
 19 26  1  0
 21 25  1  0
 22 28  1  0
 23 24  2  0
 23 29  1  0
 24 30  1  0
 25 27  2  0
 25 31  1  0
  1 32  1  0
  1 33  1  0
  1 34  1  0
  2 35  1  0
  2 36  1  0
  2 37  1  0
  3 38  1  0
  3 39  1  0
  3 40  1  0
  4 41  1  0
  4 42  1  0
  4 43  1  0
  5 44  1  0
  5 45  1  0
  5 46  1  0
  6 47  1  0
  6 48  1  0
  7 49  1  0
  7 50  1  0
  8 51  1  0
  8 52  1  0
  9 53  1  0
 10 54  1  0
 11 55  1  0
 12 56  1  0
 13 57  1  0
 14 58  1  0
 15 59  1  0
 15 60  1  0
 16 61  1  0
 16 62  1  0
 17 63  1  0
 17 64  1  0
 18 65  1  0
 19 66  1  0
M  END
