
     RDKit          3D

 66 69  0  0  0  0  0  0  0  0999 V2000
    8.4800    1.7947    1.1984 C   0  0  0  0  0  0  0  0  0  0  0  0
   -2.4684    2.5045   -0.9376 C   0  0  0  0  0  0  0  0  0  0  0  0
   -3.8637    2.1637   -2.9628 C   0  0  0  0  0  0  0  0  0  0  0  0
    6.9617    1.8560    1.2482 C   0  0  0  0  0  0  0  0  0  0  0  0
    6.3295    0.6498    0.5543 C   0  0  0  0  0  0  0  0  0  0  0  0
    4.8021    0.7155    0.6065 C   0  0  0  0  0  0  0  0  0  0  0  0
    4.1686   -0.4939   -0.0881 C   0  0  0  0  0  0  0  0  0  0  0  0
    3.1723   -3.1298   -1.6027 C   0  0  0  0  0  0  0  0  0  0  0  0
   -6.4003    1.1585    0.6595 C   0  0  0  0  0  0  0  0  0  0  0  0
   -5.1473    1.7611    0.0246 C   0  0  0  0  0  0  0  0  0  0  0  0
    2.6416   -0.4225   -0.0336 C   0  0  0  0  0  0  0  0  0  0  0  0
    2.3360   -1.9726   -2.1687 C   0  0  0  0  0  0  0  0  0  0  0  0
    2.3509   -3.0484   -0.3075 C   0  0  0  0  0  0  0  0  0  0  0  0
   -0.4183   -1.7517    0.5971 C   0  0  0  0  0  0  0  0  0  0  0  0
   -0.4294   -0.5675   -1.4664 C   0  0  0  0  0  0  0  0  0  0  0  0
   -4.7662   -0.7246    1.1340 C   0  0  0  0  0  0  0  0  0  0  0  0
    0.3043   -1.3057   -0.5254 C   0  0  0  0  0  0  0  0  0  0  0  0
   -6.2329   -0.3100    1.0400 C   0  0  0  0  0  0  0  0  0  0  0  0
   -4.0136   -0.5422   -0.2029 C   0  0  0  0  0  0  0  0  0  0  0  0
   -4.4304    0.7805   -0.9216 C   0  0  0  0  0  0  0  0  0  0  0  0
   -1.7922   -1.5027    0.7539 C   0  0  0  0  0  0  0  0  0  0  0  0
   -1.7892   -0.2929   -1.2895 C   0  0  0  0  0  0  0  0  0  0  0  0
   -2.5112   -0.7624   -0.1883 C   0  0  0  0  0  0  0  0  0  0  0  0
   -3.2792    1.4515   -1.7267 C   0  0  0  0  0  0  0  0  0  0  0  0
    1.8913   -1.5996   -0.7078 C   0  0  0  0  0  0  0  0  0  0  0  0
   -6.8957   -1.1079    0.0582 O   0  0  0  0  0  0  0  0  0  0  0  0
   -2.4163   -2.0199    1.8538 O   0  0  0  0  0  0  0  0  0  0  0  0
   -2.3820    0.4620   -2.2666 O   0  0  0  0  0  0  0  0  0  0  0  0
    8.8387    1.7861    0.1642 H   0  0  0  0  0  0  0  0  0  0  0  0
    8.8530    0.8957    1.6993 H   0  0  0  0  0  0  0  0  0  0  0  0
    8.9112    2.6666    1.7002 H   0  0  0  0  0  0  0  0  0  0  0  0
   -2.0992    2.1075    0.0140 H   0  0  0  0  0  0  0  0  0  0  0  0
   -3.0613    3.3985   -0.7185 H   0  0  0  0  0  0  0  0  0  0  0  0
   -1.5856    2.8179   -1.5076 H   0  0  0  0  0  0  0  0  0  0  0  0
   -4.3815    1.4513   -3.6157 H   0  0  0  0  0  0  0  0  0  0  0  0
   -4.5660    2.9570   -2.6888 H   0  0  0  0  0  0  0  0  0  0  0  0
   -3.0651    2.6063   -3.5702 H   0  0  0  0  0  0  0  0  0  0  0  0
    6.6377    1.8957    2.2947 H   0  0  0  0  0  0  0  0  0  0  0  0
    6.6233    2.7816    0.7683 H   0  0  0  0  0  0  0  0  0  0  0  0
    6.6744   -0.2734    1.0357 H   0  0  0  0  0  0  0  0  0  0  0  0
    6.6602    0.6121   -0.4908 H   0  0  0  0  0  0  0  0  0  0  0  0
    4.4579    1.6384    0.1242 H   0  0  0  0  0  0  0  0  0  0  0  0
    4.4720    0.7535    1.6518 H   0  0  0  0  0  0  0  0  0  0  0  0
    4.5097   -0.5243   -1.1286 H   0  0  0  0  0  0  0  0  0  0  0  0
    4.5227   -1.4087    0.3995 H   0  0  0  0  0  0  0  0  0  0  0  0
    4.2351   -2.9007   -1.4788 H   0  0  0  0  0  0  0  0  0  0  0  0
    3.0888   -4.0744   -2.1480 H   0  0  0  0  0  0  0  0  0  0  0  0
   -6.6342    1.7442    1.5571 H   0  0  0  0  0  0  0  0  0  0  0  0
   -7.2487    1.2803   -0.0252 H   0  0  0  0  0  0  0  0  0  0  0  0
   -4.4647    2.0652    0.8282 H   0  0  0  0  0  0  0  0  0  0  0  0
   -5.4339    2.6772   -0.5042 H   0  0  0  0  0  0  0  0  0  0  0  0
    2.3242    0.5175   -0.5046 H   0  0  0  0  0  0  0  0  0  0  0  0
    2.3372   -0.3641    1.0200 H   0  0  0  0  0  0  0  0  0  0  0  0
    2.8955   -1.2097   -2.7173 H   0  0  0  0  0  0  0  0  0  0  0  0
    1.5219   -2.3245   -2.8145 H   0  0  0  0  0  0  0  0  0  0  0  0
    2.9222   -3.1392    0.6206 H   0  0  0  0  0  0  0  0  0  0  0  0
    1.5420   -3.7892   -0.2803 H   0  0  0  0  0  0  0  0  0  0  0  0
    0.1178   -2.3179    1.3555 H   0  0  0  0  0  0  0  0  0  0  0  0
    0.0694   -0.1770   -2.3512 H   0  0  0  0  0  0  0  0  0  0  0  0
   -4.2770   -0.1539    1.9332 H   0  0  0  0  0  0  0  0  0  0  0  0
   -4.7392   -1.7836    1.4170 H   0  0  0  0  0  0  0  0  0  0  0  0
   -6.7401   -0.4972    1.9931 H   0  0  0  0  0  0  0  0  0  0  0  0
   -4.3752   -1.3559   -0.8529 H   0  0  0  0  0  0  0  0  0  0  0  0
   -5.1882    0.4662   -1.6568 H   0  0  0  0  0  0  0  0  0  0  0  0
   -6.7825   -2.0396    0.3152 H   0  0  0  0  0  0  0  0  0  0  0  0
   -1.7747   -2.5290    2.3751 H   0  0  0  0  0  0  0  0  0  0  0  0
  1  4  1  0
  2 24  1  0
  3 24  1  0
  4  5  1  0
  5  6  1  0
  6  7  1  0
  7 11  1  0
  8 12  1  0
  8 13  1  0
  9 10  1  0
  9 18  1  0
 10 20  1  0
 11 25  1  0
 12 25  1  0
 13 25  1  0
 14 17  2  0
 14 21  1  0
 15 17  1  0
 15 22  2  0
 16 18  1  0
 16 19  1  0
 17 25  1  0
 18 26  1  0
 19 20  1  0
 19 23  1  0
 20 24  1  0
 21 23  2  0
 21 27  1  0
 22 23  1  0
 22 28  1  0
 24 28  1  0
  1 29  1  0
  1 30  1  0
  1 31  1  0
  2 32  1  0
  2 33  1  0
  2 34  1  0
  3 35  1  0
  3 36  1  0
  3 37  1  0
  4 38  1  0
  4 39  1  0
  5 40  1  0
  5 41  1  0
  6 42  1  0
  6 43  1  0
  7 44  1  0
  7 45  1  0
  8 46  1  0
  8 47  1  0
  9 48  1  0
  9 49  1  0
 10 50  1  0
 10 51  1  0
 11 52  1  0
 11 53  1  0
 12 54  1  0
 12 55  1  0
 13 56  1  0
 13 57  1  0
 14 58  1  0
 15 59  1  0
 16 60  1  0
 16 61  1  0
 18 62  1  0
 19 63  1  0
 20 64  1  0
 26 65  1  0
 27 66  1  0
M  END
