
     RDKit          3D

 66 68  0  0  0  0  0  0  0  0999 V2000
    5.0048    4.1277   -0.9086 C   0  0  0  0  0  0  0  0  0  0  0  0
   -3.1861    5.0228    0.6475 C   0  0  0  0  0  0  0  0  0  0  0  0
    4.7566   -1.7295   -1.6493 C   0  0  0  0  0  0  0  0  0  0  0  0
    2.1949   -2.9427   -2.6318 C   0  0  0  0  0  0  0  0  0  0  0  0
   -3.2373   -1.9618    3.3353 C   0  0  0  0  0  0  0  0  0  0  0  0
   -3.6278   -3.2152    1.2011 C   0  0  0  0  0  0  0  0  0  0  0  0
    5.2438    2.9071   -0.0351 C   0  0  0  0  0  0  0  0  0  0  0  0
   -3.6384    3.9706    1.0103 C   0  0  0  0  0  0  0  0  0  0  0  0
    4.3123    1.7566   -0.4173 C   0  0  0  0  0  0  0  0  0  0  0  0
    4.5482    0.5291    0.4650 C   0  0  0  0  0  0  0  0  0  0  0  0
    3.5161   -0.5851    0.2446 C   0  0  0  0  0  0  0  0  0  0  0  0
   -4.9784   -0.2475    1.6212 C   0  0  0  0  0  0  0  0  0  0  0  0
   -4.1932    2.6800    1.4565 C   0  0  0  0  0  0  0  0  0  0  0  0
   -5.5961    0.8298    0.7176 C   0  0  0  0  0  0  0  0  0  0  0  0
    0.2924   -0.6746   -1.7514 C   0  0  0  0  0  0  0  0  0  0  0  0
    0.2180   -2.0660    0.2002 C   0  0  0  0  0  0  0  0  0  0  0  0
   -3.5193    1.2550   -0.4127 C   0  0  0  0  0  0  0  0  0  0  0  0
    3.4069   -1.1546   -1.1950 C   0  0  0  0  0  0  0  0  0  0  0  0
    2.2690   -2.2278   -1.2730 C   0  0  0  0  0  0  0  0  0  0  0  0
    0.9006   -1.6414   -0.9426 C   0  0  0  0  0  0  0  0  0  0  0  0
   -2.9536   -0.0139    0.2018 C   0  0  0  0  0  0  0  0  0  0  0  0
   -3.6046   -0.6972    1.1693 C   0  0  0  0  0  0  0  0  0  0  0  0
   -0.9628   -0.1452   -1.4153 C   0  0  0  0  0  0  0  0  0  0  0  0
   -1.0386   -1.5404    0.5243 C   0  0  0  0  0  0  0  0  0  0  0  0
   -1.6521   -0.5537   -0.2591 C   0  0  0  0  0  0  0  0  0  0  0  0
   -3.0162   -1.9448    1.8133 C   0  0  0  0  0  0  0  0  0  0  0  0
   -4.6500    1.8761    0.3160 N   0  0  0  0  0  0  0  0  0  0  0  0
   -1.5130    0.7783   -2.2650 O   0  0  0  0  0  0  0  0  0  0  0  0
   -1.5848   -2.0406    1.6735 O   0  0  0  0  0  0  0  0  0  0  0  0
    5.1804    3.8949   -1.9636 H   0  0  0  0  0  0  0  0  0  0  0  0
    3.9772    4.4902   -0.8022 H   0  0  0  0  0  0  0  0  0  0  0  0
    5.6815    4.9378   -0.6217 H   0  0  0  0  0  0  0  0  0  0  0  0
   -2.7840    5.9521    0.3178 H   0  0  0  0  0  0  0  0  0  0  0  0
    5.0450   -2.5911   -1.0378 H   0  0  0  0  0  0  0  0  0  0  0  0
    4.7215   -2.0477   -2.6958 H   0  0  0  0  0  0  0  0  0  0  0  0
    5.5551   -0.9849   -1.5867 H   0  0  0  0  0  0  0  0  0  0  0  0
    1.3210   -3.6026   -2.6833 H   0  0  0  0  0  0  0  0  0  0  0  0
    3.0749   -3.5733   -2.7957 H   0  0  0  0  0  0  0  0  0  0  0  0
    2.1286   -2.2321   -3.4633 H   0  0  0  0  0  0  0  0  0  0  0  0
   -4.2966   -2.0206    3.6061 H   0  0  0  0  0  0  0  0  0  0  0  0
   -2.8086   -1.0662    3.8019 H   0  0  0  0  0  0  0  0  0  0  0  0
   -2.7266   -2.8182    3.7925 H   0  0  0  0  0  0  0  0  0  0  0  0
   -4.7046   -3.2865    1.3868 H   0  0  0  0  0  0  0  0  0  0  0  0
   -3.4677   -3.2514    0.1168 H   0  0  0  0  0  0  0  0  0  0  0  0
   -3.1489   -4.1131    1.6106 H   0  0  0  0  0  0  0  0  0  0  0  0
    6.2884    2.5911   -0.1357 H   0  0  0  0  0  0  0  0  0  0  0  0
    5.0868    3.1815    1.0151 H   0  0  0  0  0  0  0  0  0  0  0  0
    3.2698    2.0815   -0.3226 H   0  0  0  0  0  0  0  0  0  0  0  0
    4.4775    1.4986   -1.4691 H   0  0  0  0  0  0  0  0  0  0  0  0
    5.5645    0.1481    0.3153 H   0  0  0  0  0  0  0  0  0  0  0  0
    4.4912    0.8301    1.5189 H   0  0  0  0  0  0  0  0  0  0  0  0
    3.7463   -1.4066    0.9356 H   0  0  0  0  0  0  0  0  0  0  0  0
    2.5442   -0.1863    0.5582 H   0  0  0  0  0  0  0  0  0  0  0  0
   -5.6636   -1.1021    1.6475 H   0  0  0  0  0  0  0  0  0  0  0  0
   -4.9046    0.1431    2.6433 H   0  0  0  0  0  0  0  0  0  0  0  0
   -3.4588    2.1501    2.0745 H   0  0  0  0  0  0  0  0  0  0  0  0
   -5.0441    2.9088    2.1108 H   0  0  0  0  0  0  0  0  0  0  0  0
   -5.9975    0.3539   -0.1875 H   0  0  0  0  0  0  0  0  0  0  0  0
   -6.4666    1.2739    1.2162 H   0  0  0  0  0  0  0  0  0  0  0  0
    0.8030   -0.3345   -2.6479 H   0  0  0  0  0  0  0  0  0  0  0  0
    0.6555   -2.8134    0.8583 H   0  0  0  0  0  0  0  0  0  0  0  0
   -3.8851    1.0146   -1.4194 H   0  0  0  0  0  0  0  0  0  0  0  0
   -2.7275    2.0023   -0.5377 H   0  0  0  0  0  0  0  0  0  0  0  0
    3.1539   -0.3341   -1.8781 H   0  0  0  0  0  0  0  0  0  0  0  0
    2.4976   -3.0056   -0.5302 H   0  0  0  0  0  0  0  0  0  0  0  0
   -0.8902    0.9665   -2.9861 H   0  0  0  0  0  0  0  0  0  0  0  0
  1  7  1  0
  2  8  3  0
  3 18  1  0
  4 19  1  0
  5 26  1  0
  6 26  1  0
  7  9  1  0
  8 13  1  0
  9 10  1  0
 10 11  1  0
 11 18  1  0
 12 14  1  0
 12 22  1  0
 13 27  1  0
 14 27  1  0
 15 20  2  0
 15 23  1  0
 16 20  1  0
 16 24  2  0
 17 21  1  0
 17 27  1  0
 18 19  1  0
 19 20  1  0
 21 22  2  0
 21 25  1  0
 22 26  1  0
 23 25  2  0
 23 28  1  0
 24 25  1  0
 24 29  1  0
 26 29  1  0
  1 30  1  0
  1 31  1  0
  1 32  1  0
  2 33  1  0
  3 34  1  0
  3 35  1  0
  3 36  1  0
  4 37  1  0
  4 38  1  0
  4 39  1  0
  5 40  1  0
  5 41  1  0
  5 42  1  0
  6 43  1  0
  6 44  1  0
  6 45  1  0
  7 46  1  0
  7 47  1  0
  9 48  1  0
  9 49  1  0
 10 50  1  0
 10 51  1  0
 11 52  1  0
 11 53  1  0
 12 54  1  0
 12 55  1  0
 13 56  1  0
 13 57  1  0
 14 58  1  0
 14 59  1  0
 15 60  1  0
 16 61  1  0
 17 62  1  0
 17 63  1  0
 18 64  1  0
 19 65  1  0
 28 66  1  0
M  END
