
     RDKit          3D

 68 70  0  0  0  0  0  0  0  0999 V2000
    6.2033    3.0732   -0.4499 C   0  0  0  0  0  0  0  0  0  0  0  0
   -3.0709    3.7320   -0.3398 C   0  0  0  0  0  0  0  0  0  0  0  0
    2.4448   -3.2412   -0.4964 C   0  0  0  0  0  0  0  0  0  0  0  0
    2.6347   -2.7947    1.9416 C   0  0  0  0  0  0  0  0  0  0  0  0
   -4.3357   -2.8132    0.9927 C   0  0  0  0  0  0  0  0  0  0  0  0
   -4.6469   -2.7243   -1.4630 C   0  0  0  0  0  0  0  0  0  0  0  0
   -0.0772    2.1971    2.2647 C   0  0  0  0  0  0  0  0  0  0  0  0
    4.7046    3.3051   -0.5619 C   0  0  0  0  0  0  0  0  0  0  0  0
    3.8700    2.0675   -0.2225 C   0  0  0  0  0  0  0  0  0  0  0  0
    4.0710    0.9150   -1.2120 C   0  0  0  0  0  0  0  0  0  0  0  0
    3.0770   -0.2350   -1.0093 C   0  0  0  0  0  0  0  0  0  0  0  0
   -3.4314    1.5741   -1.5301 C   0  0  0  0  0  0  0  0  0  0  0  0
   -3.7068    0.1034   -1.5973 C   0  0  0  0  0  0  0  0  0  0  0  0
    3.3051   -1.0055    0.3013 C   0  0  0  0  0  0  0  0  0  0  0  0
   -3.4817    1.5623    0.9480 C   0  0  0  0  0  0  0  0  0  0  0  0
    0.5504   -0.4861    1.4902 C   0  0  0  0  0  0  0  0  0  0  0  0
   -0.2464   -2.1940    0.0334 C   0  0  0  0  0  0  0  0  0  0  0  0
   -3.3267    2.2549   -0.3795 C   0  0  0  0  0  0  0  0  0  0  0  0
    0.8374   -1.6006    0.6869 C   0  0  0  0  0  0  0  0  0  0  0  0
   -3.2417    0.0312    0.9226 C   0  0  0  0  0  0  0  0  0  0  0  0
   -4.0662   -0.5683   -0.2420 C   0  0  0  0  0  0  0  0  0  0  0  0
   -0.7416    0.0647    1.5702 C   0  0  0  0  0  0  0  0  0  0  0  0
   -1.5465   -1.6769    0.1427 C   0  0  0  0  0  0  0  0  0  0  0  0
   -1.8162   -0.5031    0.8676 C   0  0  0  0  0  0  0  0  0  0  0  0
    2.2726   -2.1462    0.5836 C   0  0  0  0  0  0  0  0  0  0  0  0
   -3.8653   -2.1009   -0.2911 C   0  0  0  0  0  0  0  0  0  0  0  0
   -0.9799    1.1029    2.4335 O   0  0  0  0  0  0  0  0  0  0  0  0
   -2.4865   -2.4251   -0.5224 O   0  0  0  0  0  0  0  0  0  0  0  0
    6.4700    2.7017    0.5445 H   0  0  0  0  0  0  0  0  0  0  0  0
    6.7425    4.0114   -0.6162 H   0  0  0  0  0  0  0  0  0  0  0  0
    6.5546    2.3529   -1.1949 H   0  0  0  0  0  0  0  0  0  0  0  0
   -3.0086    4.1658   -1.3434 H   0  0  0  0  0  0  0  0  0  0  0  0
   -3.8773    4.2431    0.1952 H   0  0  0  0  0  0  0  0  0  0  0  0
   -2.1264    3.9401    0.1732 H   0  0  0  0  0  0  0  0  0  0  0  0
    1.8750   -4.1448   -0.2489 H   0  0  0  0  0  0  0  0  0  0  0  0
    2.1131   -2.9019   -1.4833 H   0  0  0  0  0  0  0  0  0  0  0  0
    3.4948   -3.5438   -0.5867 H   0  0  0  0  0  0  0  0  0  0  0  0
    2.6202   -2.0669    2.7604 H   0  0  0  0  0  0  0  0  0  0  0  0
    3.6385   -3.2341    1.9145 H   0  0  0  0  0  0  0  0  0  0  0  0
    1.9292   -3.5928    2.2010 H   0  0  0  0  0  0  0  0  0  0  0  0
   -3.7273   -2.5546    1.8648 H   0  0  0  0  0  0  0  0  0  0  0  0
   -4.2406   -3.9007    0.8875 H   0  0  0  0  0  0  0  0  0  0  0  0
   -5.3823   -2.5800    1.2155 H   0  0  0  0  0  0  0  0  0  0  0  0
   -5.7135   -2.4841   -1.4073 H   0  0  0  0  0  0  0  0  0  0  0  0
   -4.5398   -3.8158   -1.4658 H   0  0  0  0  0  0  0  0  0  0  0  0
   -4.2604   -2.3930   -2.4325 H   0  0  0  0  0  0  0  0  0  0  0  0
    0.8477    2.0243    2.8239 H   0  0  0  0  0  0  0  0  0  0  0  0
    0.1369    2.3936    1.2075 H   0  0  0  0  0  0  0  0  0  0  0  0
   -0.5558    3.0900    2.6792 H   0  0  0  0  0  0  0  0  0  0  0  0
    4.4632    3.6531   -1.5730 H   0  0  0  0  0  0  0  0  0  0  0  0
    4.4243    4.1123    0.1250 H   0  0  0  0  0  0  0  0  0  0  0  0
    2.8119    2.3586   -0.2185 H   0  0  0  0  0  0  0  0  0  0  0  0
    4.1143    1.7423    0.7947 H   0  0  0  0  0  0  0  0  0  0  0  0
    5.0931    0.5258   -1.1394 H   0  0  0  0  0  0  0  0  0  0  0  0
    3.9471    1.2973   -2.2327 H   0  0  0  0  0  0  0  0  0  0  0  0
    2.0576    0.1635   -1.0539 H   0  0  0  0  0  0  0  0  0  0  0  0
    3.1860   -0.9213   -1.8564 H   0  0  0  0  0  0  0  0  0  0  0  0
   -3.3102    2.0861   -2.4823 H   0  0  0  0  0  0  0  0  0  0  0  0
   -4.5408   -0.0480   -2.2941 H   0  0  0  0  0  0  0  0  0  0  0  0
   -2.8310   -0.3701   -2.0564 H   0  0  0  0  0  0  0  0  0  0  0  0
    3.3148   -0.3032    1.1418 H   0  0  0  0  0  0  0  0  0  0  0  0
    4.3156   -1.4365    0.2736 H   0  0  0  0  0  0  0  0  0  0  0  0
   -2.8701    2.0617    1.6986 H   0  0  0  0  0  0  0  0  0  0  0  0
   -4.5177    1.7371    1.2733 H   0  0  0  0  0  0  0  0  0  0  0  0
    1.3445   -0.0456    2.0873 H   0  0  0  0  0  0  0  0  0  0  0  0
   -0.1185   -3.0907   -0.5677 H   0  0  0  0  0  0  0  0  0  0  0  0
   -3.6496   -0.3421    1.8717 H   0  0  0  0  0  0  0  0  0  0  0  0
   -5.1283   -0.3589   -0.0464 H   0  0  0  0  0  0  0  0  0  0  0  0
  1  8  1  0
  2 18  1  0
  3 25  1  0
  4 25  1  0
  5 26  1  0
  6 26  1  0
  7 27  1  0
  8  9  1  0
  9 10  1  0
 10 11  1  0
 11 14  1  0
 12 13  1  0
 12 18  2  0
 13 21  1  0
 14 25  1  0
 15 18  1  0
 15 20  1  0
 16 19  2  0
 16 22  1  0
 17 19  1  0
 17 23  2  0
 19 25  1  0
 20 21  1  0
 20 24  1  0
 21 26  1  0
 22 24  2  0
 22 27  1  0
 23 24  1  0
 23 28  1  0
 26 28  1  0
  1 29  1  0
  1 30  1  0
  1 31  1  0
  2 32  1  0
  2 33  1  0
  2 34  1  0
  3 35  1  0
  3 36  1  0
  3 37  1  0
  4 38  1  0
  4 39  1  0
  4 40  1  0
  5 41  1  0
  5 42  1  0
  5 43  1  0
  6 44  1  0
  6 45  1  0
  6 46  1  0
  7 47  1  0
  7 48  1  0
  7 49  1  0
  8 50  1  0
  8 51  1  0
  9 52  1  0
  9 53  1  0
 10 54  1  0
 10 55  1  0
 11 56  1  0
 11 57  1  0
 12 58  1  0
 13 59  1  0
 13 60  1  0
 14 61  1  0
 14 62  1  0
 15 63  1  0
 15 64  1  0
 16 65  1  0
 17 66  1  0
 20 67  1  0
 21 68  1  0
M  END
