
     RDKit          3D

 71 73  0  0  0  0  0  0  0  0999 V2000
    7.8122   -1.1413    1.9554 C   0  0  0  0  0  0  0  0  0  0  0  0
    3.8315   -1.5413   -1.6418 C   0  0  0  0  0  0  0  0  0  0  0  0
    3.4922    0.4653   -3.0730 C   0  0  0  0  0  0  0  0  0  0  0  0
    7.0904    0.0078    2.6421 C   0  0  0  0  0  0  0  0  0  0  0  0
    5.9754    0.6222    1.7913 C   0  0  0  0  0  0  0  0  0  0  0  0
    4.8121   -0.3440    1.5373 C   0  0  0  0  0  0  0  0  0  0  0  0
    3.6108    0.3267    0.8602 C   0  0  0  0  0  0  0  0  0  0  0  0
   -4.4849    0.8249    2.6708 C   0  0  0  0  0  0  0  0  0  0  0  0
   -4.8646    1.7439    1.5190 C   0  0  0  0  0  0  0  0  0  0  0  0
    0.9035   -1.3667   -1.6425 C   0  0  0  0  0  0  0  0  0  0  0  0
   -0.4917   -1.3730   -1.5159 C   0  0  0  0  0  0  0  0  0  0  0  0
    3.8571    0.7508   -0.5992 C   0  0  0  0  0  0  0  0  0  0  0  0
   -4.2807   -0.9049    0.7935 C   0  0  0  0  0  0  0  0  0  0  0  0
   -4.7539    1.8935   -0.9787 C   0  0  0  0  0  0  0  0  0  0  0  0
    0.9065    1.0034   -1.3258 C   0  0  0  0  0  0  0  0  0  0  0  0
   -3.4878    0.2480   -2.3731 C   0  0  0  0  0  0  0  0  0  0  0  0
   -6.0124   -1.2005    2.6309 C   0  0  0  0  0  0  0  0  0  0  0  0
   -4.6202   -0.6551    2.2798 C   0  0  0  0  0  0  0  0  0  0  0  0
   -3.9569    1.5460    0.2830 C   0  0  0  0  0  0  0  0  0  0  0  0
    1.6384   -0.1786   -1.5403 C   0  0  0  0  0  0  0  0  0  0  0  0
   -3.9489    1.6910   -2.2508 C   0  0  0  0  0  0  0  0  0  0  0  0
   -1.2202   -0.1937   -1.2814 C   0  0  0  0  0  0  0  0  0  0  0  0
   -3.2927    0.1429    0.2372 C   0  0  0  0  0  0  0  0  0  0  0  0
   -2.7403   -0.3024   -1.1506 C   0  0  0  0  0  0  0  0  0  0  0  0
   -0.4897    0.9909   -1.1896 C   0  0  0  0  0  0  0  0  0  0  0  0
    3.1724   -0.1423   -1.6856 C   0  0  0  0  0  0  0  0  0  0  0  0
   -6.0866   -2.6011    2.3935 O   0  0  0  0  0  0  0  0  0  0  0  0
   -4.7917    2.0028   -3.3632 O   0  0  0  0  0  0  0  0  0  0  0  0
   -1.1349    2.1702   -0.9638 O   0  0  0  0  0  0  0  0  0  0  0  0
    8.6580   -1.4715    2.5671 H   0  0  0  0  0  0  0  0  0  0  0  0
    8.1982   -0.8352    0.9777 H   0  0  0  0  0  0  0  0  0  0  0  0
    7.1514   -2.0021    1.8135 H   0  0  0  0  0  0  0  0  0  0  0  0
    3.5692   -2.0876   -0.7292 H   0  0  0  0  0  0  0  0  0  0  0  0
    3.5312   -2.1577   -2.4970 H   0  0  0  0  0  0  0  0  0  0  0  0
    4.9248   -1.4637   -1.6805 H   0  0  0  0  0  0  0  0  0  0  0  0
    3.1256    1.4942   -3.1607 H   0  0  0  0  0  0  0  0  0  0  0  0
    4.5724    0.4859   -3.2564 H   0  0  0  0  0  0  0  0  0  0  0  0
    3.0294   -0.1168   -3.8783 H   0  0  0  0  0  0  0  0  0  0  0  0
    7.8222    0.7907    2.8736 H   0  0  0  0  0  0  0  0  0  0  0  0
    6.6815   -0.3377    3.5981 H   0  0  0  0  0  0  0  0  0  0  0  0
    6.3982    0.9707    0.8420 H   0  0  0  0  0  0  0  0  0  0  0  0
    5.5970    1.5097    2.3140 H   0  0  0  0  0  0  0  0  0  0  0  0
    5.1471   -1.1964    0.9368 H   0  0  0  0  0  0  0  0  0  0  0  0
    4.4755   -0.7481    2.5011 H   0  0  0  0  0  0  0  0  0  0  0  0
    2.7503   -0.3478    0.9326 H   0  0  0  0  0  0  0  0  0  0  0  0
    3.3422    1.2187    1.4416 H   0  0  0  0  0  0  0  0  0  0  0  0
   -3.4458    1.0300    2.9582 H   0  0  0  0  0  0  0  0  0  0  0  0
   -5.0937    1.0526    3.5528 H   0  0  0  0  0  0  0  0  0  0  0  0
   -4.8010    2.7898    1.8459 H   0  0  0  0  0  0  0  0  0  0  0  0
   -5.9174    1.5687    1.2611 H   0  0  0  0  0  0  0  0  0  0  0  0
    1.3892   -2.3217   -1.8256 H   0  0  0  0  0  0  0  0  0  0  0  0
   -1.0067   -2.3290   -1.6032 H   0  0  0  0  0  0  0  0  0  0  0  0
    3.5173    1.7884   -0.7079 H   0  0  0  0  0  0  0  0  0  0  0  0
    4.9334    0.7916   -0.8059 H   0  0  0  0  0  0  0  0  0  0  0  0
   -3.8565   -1.9135    0.7079 H   0  0  0  0  0  0  0  0  0  0  0  0
   -5.1919   -0.8982    0.1810 H   0  0  0  0  0  0  0  0  0  0  0  0
   -5.0989    2.9346   -0.9295 H   0  0  0  0  0  0  0  0  0  0  0  0
   -5.6694    1.2889   -1.0318 H   0  0  0  0  0  0  0  0  0  0  0  0
    1.4298    1.9538   -1.2696 H   0  0  0  0  0  0  0  0  0  0  0  0
   -2.8962    0.1235   -3.2894 H   0  0  0  0  0  0  0  0  0  0  0  0
   -4.3808   -0.3736   -2.5356 H   0  0  0  0  0  0  0  0  0  0  0  0
   -6.8002   -0.7058    2.0531 H   0  0  0  0  0  0  0  0  0  0  0  0
   -6.2246   -1.0418    3.6926 H   0  0  0  0  0  0  0  0  0  0  0  0
   -3.8931   -1.2208    2.8794 H   0  0  0  0  0  0  0  0  0  0  0  0
   -3.1500    2.2825    0.3725 H   0  0  0  0  0  0  0  0  0  0  0  0
   -3.1100    2.3889   -2.2879 H   0  0  0  0  0  0  0  0  0  0  0  0
   -2.4461    0.1552    0.9400 H   0  0  0  0  0  0  0  0  0  0  0  0
   -2.9282   -1.3853   -1.2059 H   0  0  0  0  0  0  0  0  0  0  0  0
   -6.0526   -2.7396    1.4317 H   0  0  0  0  0  0  0  0  0  0  0  0
   -4.2485    1.9070   -4.1653 H   0  0  0  0  0  0  0  0  0  0  0  0
   -0.4769    2.8729   -0.8333 H   0  0  0  0  0  0  0  0  0  0  0  0
  1  4  1  0
  2 26  1  0
  3 26  1  0
  4  5  1  0
  5  6  1  0
  6  7  1  0
  7 12  1  0
  8  9  1  0
  8 18  1  0
  9 19  1  0
 10 11  2  0
 10 20  1  0
 11 22  1  0
 12 26  1  0
 13 18  1  0
 13 23  1  0
 14 19  1  0
 14 21  1  0
 15 20  2  0
 15 25  1  0
 16 21  1  0
 16 24  1  0
 17 18  1  0
 17 27  1  0
 19 23  1  0
 20 26  1  0
 21 28  1  0
 22 24  1  0
 22 25  2  0
 23 24  1  0
 25 29  1  0
  1 30  1  0
  1 31  1  0
  1 32  1  0
  2 33  1  0
  2 34  1  0
  2 35  1  0
  3 36  1  0
  3 37  1  0
  3 38  1  0
  4 39  1  0
  4 40  1  0
  5 41  1  0
  5 42  1  0
  6 43  1  0
  6 44  1  0
  7 45  1  0
  7 46  1  0
  8 47  1  0
  8 48  1  0
  9 49  1  0
  9 50  1  0
 10 51  1  0
 11 52  1  0
 12 53  1  0
 12 54  1  0
 13 55  1  0
 13 56  1  0
 14 57  1  0
 14 58  1  0
 15 59  1  0
 16 60  1  0
 16 61  1  0
 17 62  1  0
 17 63  1  0
 18 64  1  0
 19 65  1  0
 21 66  1  0
 23 67  1  0
 24 68  1  0
 27 69  1  0
 28 70  1  0
 29 71  1  0
M  END
