
     RDKit          3D

 70 72  0  0  0  0  0  0  0  0999 V2000
    8.1297   -0.9163    1.4218 C   0  0  0  0  0  0  0  0  0  0  0  0
   -6.5128   -0.4882    2.9415 C   0  0  0  0  0  0  0  0  0  0  0  0
    5.3975    3.4199   -0.8544 C   0  0  0  0  0  0  0  0  0  0  0  0
    3.5367   -3.6403    0.2866 C   0  0  0  0  0  0  0  0  0  0  0  0
    8.2262    0.0436    0.2440 C   0  0  0  0  0  0  0  0  0  0  0  0
   -6.1086    0.9269    2.5655 C   0  0  0  0  0  0  0  0  0  0  0  0
   -8.0725    0.1362   -2.0970 C   0  0  0  0  0  0  0  0  0  0  0  0
   -7.2354   -0.9655   -1.9348 C   0  0  0  0  0  0  0  0  0  0  0  0
   -7.8180    1.3109   -1.3927 C   0  0  0  0  0  0  0  0  0  0  0  0
    7.3096   -0.3354   -0.9238 C   0  0  0  0  0  0  0  0  0  0  0  0
   -6.1454   -0.8932   -1.0646 C   0  0  0  0  0  0  0  0  0  0  0  0
   -6.7294    1.3823   -0.5200 C   0  0  0  0  0  0  0  0  0  0  0  0
    1.6179    0.1081    0.3193 C   0  0  0  0  0  0  0  0  0  0  0  0
   -2.6691    1.3424   -0.4682 C   0  0  0  0  0  0  0  0  0  0  0  0
   -2.5898   -0.9005    0.7437 C   0  0  0  0  0  0  0  0  0  0  0  0
    0.7428   -0.1926   -0.9121 C   0  0  0  0  0  0  0  0  0  0  0  0
   -1.1642    1.2043   -0.2345 C   0  0  0  0  0  0  0  0  0  0  0  0
   -1.2646   -1.2212    0.0425 C   0  0  0  0  0  0  0  0  0  0  0  0
    5.0870   -1.3562   -0.3204 C   0  0  0  0  0  0  0  0  0  0  0  0
    3.8380    1.1299   -0.2975 C   0  0  0  0  0  0  0  0  0  0  0  0
    5.8337   -0.1990   -0.6136 C   0  0  0  0  0  0  0  0  0  0  0  0
    3.0948   -0.0268    0.0038 C   0  0  0  0  0  0  0  0  0  0  0  0
   -5.8907    0.2763   -0.3370 C   0  0  0  0  0  0  0  0  0  0  0  0
   -3.4413    0.0598   -0.0977 C   0  0  0  0  0  0  0  0  0  0  0  0
    5.2000    1.0546   -0.6010 C   0  0  0  0  0  0  0  0  0  0  0  0
    3.7261   -1.2807   -0.0137 C   0  0  0  0  0  0  0  0  0  0  0  0
   -4.7971    0.9552    1.7885 C   0  0  0  0  0  0  0  0  0  0  0  0
   -0.7130   -0.0959   -0.7210 N   0  0  0  0  0  0  0  0  0  0  0  0
   -4.7592    0.3461    0.5296 N   0  0  0  0  0  0  0  0  0  0  0  0
   -3.7952    1.4271    2.3344 O   0  0  0  0  0  0  0  0  0  0  0  0
    5.9931    2.1304   -0.9031 O   0  0  0  0  0  0  0  0  0  0  0  0
    2.9286   -2.3557    0.2781 O   0  0  0  0  0  0  0  0  0  0  0  0
    8.8699   -0.6511    2.1839 H   0  0  0  0  0  0  0  0  0  0  0  0
    8.3230   -1.9467    1.1068 H   0  0  0  0  0  0  0  0  0  0  0  0
    7.1423   -0.8766    1.8915 H   0  0  0  0  0  0  0  0  0  0  0  0
   -6.7823   -1.0805    2.0627 H   0  0  0  0  0  0  0  0  0  0  0  0
   -7.3783   -0.4698    3.6112 H   0  0  0  0  0  0  0  0  0  0  0  0
   -5.6947   -1.0058    3.4531 H   0  0  0  0  0  0  0  0  0  0  0  0
    5.0216    3.6449    0.1490 H   0  0  0  0  0  0  0  0  0  0  0  0
    4.6079    3.5174   -1.6065 H   0  0  0  0  0  0  0  0  0  0  0  0
    6.1732    4.1552   -1.0901 H   0  0  0  0  0  0  0  0  0  0  0  0
    4.3171   -3.7027    1.0518 H   0  0  0  0  0  0  0  0  0  0  0  0
    3.9279   -3.8987   -0.7029 H   0  0  0  0  0  0  0  0  0  0  0  0
    2.7643   -4.3735    0.5393 H   0  0  0  0  0  0  0  0  0  0  0  0
    8.0138    1.0611    0.5913 H   0  0  0  0  0  0  0  0  0  0  0  0
    9.2620    0.0429   -0.1165 H   0  0  0  0  0  0  0  0  0  0  0  0
   -6.9125    1.4379    2.0360 H   0  0  0  0  0  0  0  0  0  0  0  0
   -5.9512    1.5020    3.4869 H   0  0  0  0  0  0  0  0  0  0  0  0
   -8.9179    0.0815   -2.7780 H   0  0  0  0  0  0  0  0  0  0  0  0
   -7.4297   -1.8815   -2.4868 H   0  0  0  0  0  0  0  0  0  0  0  0
   -8.4589    2.1779   -1.5329 H   0  0  0  0  0  0  0  0  0  0  0  0
    7.5482    0.2931   -1.7914 H   0  0  0  0  0  0  0  0  0  0  0  0
    7.5307   -1.3613   -1.2458 H   0  0  0  0  0  0  0  0  0  0  0  0
   -5.5149   -1.7702   -0.9400 H   0  0  0  0  0  0  0  0  0  0  0  0
   -6.5241    2.3251   -0.0196 H   0  0  0  0  0  0  0  0  0  0  0  0
    1.3685   -0.5509    1.1586 H   0  0  0  0  0  0  0  0  0  0  0  0
    1.4253    1.1257    0.6812 H   0  0  0  0  0  0  0  0  0  0  0  0
   -2.8567    1.5614   -1.5284 H   0  0  0  0  0  0  0  0  0  0  0  0
   -3.0324    2.2213    0.0753 H   0  0  0  0  0  0  0  0  0  0  0  0
   -3.1409   -1.8299    0.9335 H   0  0  0  0  0  0  0  0  0  0  0  0
   -2.3700   -0.4689    1.7269 H   0  0  0  0  0  0  0  0  0  0  0  0
    1.0212    0.4993   -1.7187 H   0  0  0  0  0  0  0  0  0  0  0  0
    0.9776   -1.1892   -1.3085 H   0  0  0  0  0  0  0  0  0  0  0  0
   -0.9323    1.3371    0.8297 H   0  0  0  0  0  0  0  0  0  0  0  0
   -0.6632    2.0160   -0.7760 H   0  0  0  0  0  0  0  0  0  0  0  0
   -1.4237   -2.0525   -0.6552 H   0  0  0  0  0  0  0  0  0  0  0  0
   -0.5681   -1.5858    0.8061 H   0  0  0  0  0  0  0  0  0  0  0  0
    5.6022   -2.3113   -0.3354 H   0  0  0  0  0  0  0  0  0  0  0  0
    3.3214    2.0846   -0.2883 H   0  0  0  0  0  0  0  0  0  0  0  0
   -3.6219   -0.4641   -1.0460 H   0  0  0  0  0  0  0  0  0  0  0  0
  1  5  1  0
  2  6  1  0
  3 31  1  0
  4 32  1  0
  5 10  1  0
  6 27  1  0
  7  8  2  0
  7  9  1  0
  8 11  1  0
  9 12  2  0
 10 21  1  0
 11 23  2  0
 12 23  1  0
 13 16  1  0
 13 22  1  0
 14 17  1  0
 14 24  1  0
 15 18  1  0
 15 24  1  0
 16 28  1  0
 17 28  1  0
 18 28  1  0
 19 21  2  0
 19 26  1  0
 20 22  1  0
 20 25  2  0
 21 25  1  0
 22 26  2  0
 23 29  1  0
 24 29  1  0
 25 31  1  0
 26 32  1  0
 27 29  1  0
 27 30  2  0
  1 33  1  0
  1 34  1  0
  1 35  1  0
  2 36  1  0
  2 37  1  0
  2 38  1  0
  3 39  1  0
  3 40  1  0
  3 41  1  0
  4 42  1  0
  4 43  1  0
  4 44  1  0
  5 45  1  0
  5 46  1  0
  6 47  1  0
  6 48  1  0
  7 49  1  0
  8 50  1  0
  9 51  1  0
 10 52  1  0
 10 53  1  0
 11 54  1  0
 12 55  1  0
 13 56  1  0
 13 57  1  0
 14 58  1  0
 14 59  1  0
 15 60  1  0
 15 61  1  0
 16 62  1  0
 16 63  1  0
 17 64  1  0
 17 65  1  0
 18 66  1  0
 18 67  1  0
 19 68  1  0
 20 69  1  0
 24 70  1  0
M  END
