
     RDKit          3D

 66 70  0  0  0  0  0  0  0  0999 V2000
    6.3356    2.5642    2.1206 C   0  0  0  0  0  0  0  0  0  0  0  0
    5.0165    2.1391    2.1775 C   0  0  0  0  0  0  0  0  0  0  0  0
    7.1684    2.0448    1.1409 C   0  0  0  0  0  0  0  0  0  0  0  0
   -1.2234   -0.4352    0.9098 C   0  0  0  0  0  0  0  0  0  0  0  0
    4.5384    1.1983    1.2539 C   0  0  0  0  0  0  0  0  0  0  0  0
    6.6760    1.1049    0.2245 C   0  0  0  0  0  0  0  0  0  0  0  0
   -2.7228   -0.6226    1.2017 C   0  0  0  0  0  0  0  0  0  0  0  0
   -2.9950    1.0749   -1.9266 C   0  0  0  0  0  0  0  0  0  0  0  0
   -3.9800    2.0713    0.0474 C   0  0  0  0  0  0  0  0  0  0  0  0
   -5.6974   -0.8238    1.5331 C   0  0  0  0  0  0  0  0  0  0  0  0
   -5.9421   -1.2021   -0.8406 C   0  0  0  0  0  0  0  0  0  0  0  0
   -2.8710    2.3408   -2.5013 C   0  0  0  0  0  0  0  0  0  0  0  0
   -3.8570    3.3356   -0.5311 C   0  0  0  0  0  0  0  0  0  0  0  0
   -7.0395   -1.1654    1.7202 C   0  0  0  0  0  0  0  0  0  0  0  0
   -7.2826   -1.5419   -0.6517 C   0  0  0  0  0  0  0  0  0  0  0  0
    2.5071    0.1947   -1.2751 C   0  0  0  0  0  0  0  0  0  0  0  0
    3.0950   -1.6871    0.3948 C   0  0  0  0  0  0  0  0  0  0  0  0
   -0.6425   -1.5162   -0.0140 C   0  0  0  0  0  0  0  0  0  0  0  0
    1.0723   -0.3450   -1.3166 C   0  0  0  0  0  0  0  0  0  0  0  0
    1.6637   -1.3705    0.8310 C   0  0  0  0  0  0  0  0  0  0  0  0
    5.7547   -0.9010   -1.6520 C   0  0  0  0  0  0  0  0  0  0  0  0
   -3.5495    0.9244   -0.6429 C   0  0  0  0  0  0  0  0  0  0  0  0
   -5.1246   -0.8427    0.2498 C   0  0  0  0  0  0  0  0  0  0  0  0
   -3.3027    3.4584   -1.7986 C   0  0  0  0  0  0  0  0  0  0  0  0
   -7.8185   -1.5216    0.6279 C   0  0  0  0  0  0  0  0  0  0  0  0
    5.3444    0.6472    0.2464 C   0  0  0  0  0  0  0  0  0  0  0  0
   -3.6638   -0.4659   -0.0213 C   0  0  0  0  0  0  0  0  0  0  0  0
    3.8165   -1.7920   -1.9914 C   0  0  0  0  0  0  0  0  0  0  0  0
    3.5256   -0.8560   -0.8235 C   0  0  0  0  0  0  0  0  0  0  0  0
   -3.1823    4.6726   -2.3518 F   0  0  0  0  0  0  0  0  0  0  0  0
   -9.1048   -1.8468    0.8122 F   0  0  0  0  0  0  0  0  0  0  0  0
    5.0082   -1.8658   -2.4848 N   0  0  0  0  0  0  0  0  0  0  0  0
    0.7826   -1.3823   -0.3255 N   0  0  0  0  0  0  0  0  0  0  0  0
    4.8809   -0.2768   -0.6615 N   0  0  0  0  0  0  0  0  0  0  0  0
    2.8616   -2.5461   -2.5241 O   0  0  0  0  0  0  0  0  0  0  0  0
    6.7107    3.2926    2.8331 H   0  0  0  0  0  0  0  0  0  0  0  0
    4.3497    2.5346    2.9391 H   0  0  0  0  0  0  0  0  0  0  0  0
    8.2047    2.3661    1.0809 H   0  0  0  0  0  0  0  0  0  0  0  0
   -1.0474    0.5647    0.5003 H   0  0  0  0  0  0  0  0  0  0  0  0
   -0.7008   -0.4666    1.8740 H   0  0  0  0  0  0  0  0  0  0  0  0
    3.5011    0.9060    1.3586 H   0  0  0  0  0  0  0  0  0  0  0  0
    7.3792    0.7395   -0.5190 H   0  0  0  0  0  0  0  0  0  0  0  0
   -2.8656   -1.6174    1.6447 H   0  0  0  0  0  0  0  0  0  0  0  0
   -2.9928    0.1023    1.9808 H   0  0  0  0  0  0  0  0  0  0  0  0
   -2.6518    0.2075   -2.4864 H   0  0  0  0  0  0  0  0  0  0  0  0
   -4.4194    1.9870    1.0386 H   0  0  0  0  0  0  0  0  0  0  0  0
   -5.1163   -0.5405    2.4061 H   0  0  0  0  0  0  0  0  0  0  0  0
   -5.5351   -1.2122   -1.8501 H   0  0  0  0  0  0  0  0  0  0  0  0
   -2.4425    2.4620   -3.4908 H   0  0  0  0  0  0  0  0  0  0  0  0
   -4.1917    4.2224   -0.0027 H   0  0  0  0  0  0  0  0  0  0  0  0
   -7.4812   -1.1525    2.7116 H   0  0  0  0  0  0  0  0  0  0  0  0
   -7.9091   -1.8172   -1.4937 H   0  0  0  0  0  0  0  0  0  0  0  0
    2.7688    0.5952   -2.2636 H   0  0  0  0  0  0  0  0  0  0  0  0
    2.5188    1.0565   -0.5995 H   0  0  0  0  0  0  0  0  0  0  0  0
    3.7601   -1.5350    1.2528 H   0  0  0  0  0  0  0  0  0  0  0  0
    3.1611   -2.7611    0.1719 H   0  0  0  0  0  0  0  0  0  0  0  0
   -0.8017   -2.4979    0.4510 H   0  0  0  0  0  0  0  0  0  0  0  0
   -1.1954   -1.5529   -0.9591 H   0  0  0  0  0  0  0  0  0  0  0  0
    0.8710   -0.7598   -2.3113 H   0  0  0  0  0  0  0  0  0  0  0  0
    0.4008    0.5151   -1.2093 H   0  0  0  0  0  0  0  0  0  0  0  0
    1.6216   -0.4066    1.3512 H   0  0  0  0  0  0  0  0  0  0  0  0
    1.3589   -2.1356    1.5560 H   0  0  0  0  0  0  0  0  0  0  0  0
    6.1854   -0.1445   -2.3193 H   0  0  0  0  0  0  0  0  0  0  0  0
    6.5699   -1.4428   -1.1573 H   0  0  0  0  0  0  0  0  0  0  0  0
   -3.3259   -1.2019   -0.7630 H   0  0  0  0  0  0  0  0  0  0  0  0
    3.2674   -3.0715   -3.2334 H   0  0  0  0  0  0  0  0  0  0  0  0
  1  2  2  0
  1  3  1  0
  2  5  1  0
  3  6  2  0
  4  7  1  0
  4 18  1  0
  5 26  2  0
  6 26  1  0
  7 27  1  0
  8 12  2  0
  8 22  1  0
  9 13  1  0
  9 22  2  0
 10 14  2  0
 10 23  1  0
 11 15  1  0
 11 23  2  0
 12 24  1  0
 13 24  2  0
 14 25  1  0
 15 25  2  0
 16 19  1  0
 16 29  1  0
 17 20  1  0
 17 29  1  0
 18 33  1  0
 19 33  1  0
 20 33  1  0
 21 32  1  0
 21 34  1  0
 22 27  1  0
 23 27  1  0
 24 30  1  0
 25 31  1  0
 26 34  1  0
 28 29  1  0
 28 32  2  0
 28 35  1  0
 29 34  1  0
  1 36  1  0
  2 37  1  0
  3 38  1  0
  4 39  1  0
  4 40  1  0
  5 41  1  0
  6 42  1  0
  7 43  1  0
  7 44  1  0
  8 45  1  0
  9 46  1  0
 10 47  1  0
 11 48  1  0
 12 49  1  0
 13 50  1  0
 14 51  1  0
 15 52  1  0
 16 53  1  0
 16 54  1  0
 17 55  1  0
 17 56  1  0
 18 57  1  0
 18 58  1  0
 19 59  1  0
 19 60  1  0
 20 61  1  0
 20 62  1  0
 21 63  1  0
 21 64  1  0
 27 65  1  0
 35 66  1  0
M  END
