
     RDKit          3D

 68 70  0  0  0  0  0  0  0  0999 V2000
   -6.9285    3.1653   -1.0786 C   0  0  0  0  0  0  0  0  0  0  0  0
    8.2160    4.0073   -0.1461 C   0  0  0  0  0  0  0  0  0  0  0  0
    0.7230   -2.8237    1.6853 C   0  0  0  0  0  0  0  0  0  0  0  0
    2.3286    1.2109   -0.0331 C   0  0  0  0  0  0  0  0  0  0  0  0
    3.6108   -0.6064    1.2903 C   0  0  0  0  0  0  0  0  0  0  0  0
   -6.9207    3.0377    0.4354 C   0  0  0  0  0  0  0  0  0  0  0  0
   -2.9404   -4.4814   -0.3465 C   0  0  0  0  0  0  0  0  0  0  0  0
   -3.0456   -4.3721   -1.7321 C   0  0  0  0  0  0  0  0  0  0  0  0
   -2.2845   -3.4903    0.3884 C   0  0  0  0  0  0  0  0  0  0  0  0
    7.3050    2.0281   -1.4213 C   0  0  0  0  0  0  0  0  0  0  0  0
   -3.0958    1.1812    0.9915 C   0  0  0  0  0  0  0  0  0  0  0  0
   -4.2694   -0.7537    1.8157 C   0  0  0  0  0  0  0  0  0  0  0  0
   -4.3158    1.8189    0.7365 C   0  0  0  0  0  0  0  0  0  0  0  0
   -5.4854   -0.1137    1.5611 C   0  0  0  0  0  0  0  0  0  0  0  0
    6.3238    1.0548   -1.5898 C   0  0  0  0  0  0  0  0  0  0  0  0
   -1.8381   -2.2764   -1.6462 C   0  0  0  0  0  0  0  0  0  0  0  0
   -1.7386   -0.7957    1.8013 C   0  0  0  0  0  0  0  0  0  0  0  0
   -2.5747   -3.1621   -3.8128 C   0  0  0  0  0  0  0  0  0  0  0  0
    6.0761    2.8364    0.4488 C   0  0  0  0  0  0  0  0  0  0  0  0
    7.1814    2.9559   -0.3873 C   0  0  0  0  0  0  0  0  0  0  0  0
    0.4976   -1.5805    0.8238 C   0  0  0  0  0  0  0  0  0  0  0  0
   -3.0605   -0.1109    1.5326 C   0  0  0  0  0  0  0  0  0  0  0  0
   -2.4899   -3.2706   -2.3867 C   0  0  0  0  0  0  0  0  0  0  0  0
   -1.7286   -2.3693   -0.2471 C   0  0  0  0  0  0  0  0  0  0  0  0
   -5.5182    1.1753    1.0253 C   0  0  0  0  0  0  0  0  0  0  0  0
   -1.0019   -1.2617    0.5168 C   0  0  0  0  0  0  0  0  0  0  0  0
    5.2516    1.0325   -0.7118 C   0  0  0  0  0  0  0  0  0  0  0  0
    2.2872   -1.1587   -0.7764 C   0  0  0  0  0  0  0  0  0  0  0  0
    3.1566   -0.0828   -0.0794 C   0  0  0  0  0  0  0  0  0  0  0  0
   -2.6370   -3.0797   -4.9689 N   0  0  0  0  0  0  0  0  0  0  0  0
    5.1097    1.9004    0.3072 N   0  0  0  0  0  0  0  0  0  0  0  0
    1.2161   -1.7687   -0.4340 N   0  0  0  0  0  0  0  0  0  0  0  0
    2.7203   -1.5178   -2.0001 O   0  0  0  0  0  0  0  0  0  0  0  0
   -6.7753    1.6739    0.8277 O   0  0  0  0  0  0  0  0  0  0  0  0
    4.3171    0.0516   -0.9358 O   0  0  0  0  0  0  0  0  0  0  0  0
   -5.9767    2.8418   -1.5118 H   0  0  0  0  0  0  0  0  0  0  0  0
   -7.7063    2.5288   -1.5130 H   0  0  0  0  0  0  0  0  0  0  0  0
   -7.1131    4.2015   -1.3782 H   0  0  0  0  0  0  0  0  0  0  0  0
    7.7423    4.9639    0.0978 H   0  0  0  0  0  0  0  0  0  0  0  0
    8.8690    3.7095    0.6801 H   0  0  0  0  0  0  0  0  0  0  0  0
    8.8346    4.1676   -1.0360 H   0  0  0  0  0  0  0  0  0  0  0  0
    0.4333   -3.7416    1.1636 H   0  0  0  0  0  0  0  0  0  0  0  0
    1.7859   -2.9286    1.9312 H   0  0  0  0  0  0  0  0  0  0  0  0
    0.1718   -2.7677    2.6280 H   0  0  0  0  0  0  0  0  0  0  0  0
    2.7056    1.9127    0.7177 H   0  0  0  0  0  0  0  0  0  0  0  0
    2.3532    1.7215   -1.0034 H   0  0  0  0  0  0  0  0  0  0  0  0
    1.2767    1.0386    0.2118 H   0  0  0  0  0  0  0  0  0  0  0  0
    2.8137   -0.6030    2.0352 H   0  0  0  0  0  0  0  0  0  0  0  0
    4.4309   -0.0203    1.7154 H   0  0  0  0  0  0  0  0  0  0  0  0
    3.9878   -1.6330    1.2025 H   0  0  0  0  0  0  0  0  0  0  0  0
   -7.8949    3.3675    0.8146 H   0  0  0  0  0  0  0  0  0  0  0  0
   -6.1799    3.6939    0.9050 H   0  0  0  0  0  0  0  0  0  0  0  0
   -3.3630   -5.3439    0.1651 H   0  0  0  0  0  0  0  0  0  0  0  0
   -3.5544   -5.1529   -2.2942 H   0  0  0  0  0  0  0  0  0  0  0  0
   -2.2077   -3.6159    1.4658 H   0  0  0  0  0  0  0  0  0  0  0  0
    8.1543    2.0564   -2.0988 H   0  0  0  0  0  0  0  0  0  0  0  0
   -2.1703    1.7049    0.7609 H   0  0  0  0  0  0  0  0  0  0  0  0
   -4.2809   -1.7563    2.2343 H   0  0  0  0  0  0  0  0  0  0  0  0
   -4.2866    2.8112    0.3008 H   0  0  0  0  0  0  0  0  0  0  0  0
   -6.4181   -0.6254    1.7848 H   0  0  0  0  0  0  0  0  0  0  0  0
    6.3922    0.3270   -2.3900 H   0  0  0  0  0  0  0  0  0  0  0  0
   -1.4016   -1.4226   -2.1635 H   0  0  0  0  0  0  0  0  0  0  0  0
   -1.8890   -1.6260    2.5010 H   0  0  0  0  0  0  0  0  0  0  0  0
   -1.1098   -0.0759    2.3431 H   0  0  0  0  0  0  0  0  0  0  0  0
    5.9288    3.5141    1.2861 H   0  0  0  0  0  0  0  0  0  0  0  0
    0.8809   -0.7241    1.3791 H   0  0  0  0  0  0  0  0  0  0  0  0
   -0.9824   -0.3877   -0.1530 H   0  0  0  0  0  0  0  0  0  0  0  0
    2.1016   -2.1897   -2.3303 H   0  0  0  0  0  0  0  0  0  0  0  0
  1  6  1  0
  2 20  1  0
  3 21  1  0
  4 29  1  0
  5 29  1  0
  6 34  1  0
  7  8  2  0
  7  9  1  0
  8 23  1  0
  9 24  2  0
 10 15  2  0
 10 20  1  0
 11 13  2  0
 11 22  1  0
 12 14  1  0
 12 22  2  0
 13 25  1  0
 14 25  2  0
 15 27  1  0
 16 23  2  0
 16 24  1  0
 17 22  1  0
 17 26  1  0
 18 23  1  0
 18 30  3  0
 19 20  2  0
 19 31  1  0
 21 26  1  0
 21 32  1  0
 24 26  1  0
 25 34  1  0
 27 31  2  0
 27 35  1  0
 28 29  1  0
 28 32  2  3
 28 33  1  0
 29 35  1  0
  1 36  1  0
  1 37  1  0
  1 38  1  0
  2 39  1  0
  2 40  1  0
  2 41  1  0
  3 42  1  0
  3 43  1  0
  3 44  1  0
  4 45  1  0
  4 46  1  0
  4 47  1  0
  5 48  1  0
  5 49  1  0
  5 50  1  0
  6 51  1  0
  6 52  1  0
  7 53  1  0
  8 54  1  0
  9 55  1  0
 10 56  1  0
 11 57  1  0
 12 58  1  0
 13 59  1  0
 14 60  1  0
 15 61  1  0
 16 62  1  0
 17 63  1  0
 17 64  1  0
 19 65  1  0
 21 66  1  0
 26 67  1  0
 33 68  1  0
M  END
