
     RDKit          3D

 84 87  0  0  0  0  0  0  0  0999 V2000
    0.6719   -6.2740   -1.2176 C   0  0  0  0  0  0  0  0  0  0  0  0
   -4.4439    2.0957   -0.8700 C   0  0  0  0  0  0  0  0  0  0  0  0
   -2.5137    2.4282   -2.3885 C   0  0  0  0  0  0  0  0  0  0  0  0
   -3.9044   -4.2034    2.4178 C   0  0  0  0  0  0  0  0  0  0  0  0
   -3.3157   -4.6751    0.0601 C   0  0  0  0  0  0  0  0  0  0  0  0
   -3.9048    4.8160    1.0836 C   0  0  0  0  0  0  0  0  0  0  0  0
   -2.8379    4.5500    0.0166 C   0  0  0  0  0  0  0  0  0  0  0  0
   -4.3278    6.2839    1.1053 C   0  0  0  0  0  0  0  0  0  0  0  0
    4.4443    0.3380   -0.0803 C   0  0  0  0  0  0  0  0  0  0  0  0
    3.3131   -0.6867   -0.1786 C   0  0  0  0  0  0  0  0  0  0  0  0
   -0.2987   -5.9497    1.0496 C   0  0  0  0  0  0  0  0  0  0  0  0
   -0.9299   -5.1576    2.1534 C   0  0  0  0  0  0  0  0  0  0  0  0
   -2.2904    3.1132    0.0635 C   0  0  0  0  0  0  0  0  0  0  0  0
   -5.3612    6.5138    2.1278 C   0  0  0  0  0  0  0  0  0  0  0  0
    4.5169    1.2412   -1.3244 C   0  0  0  0  0  0  0  0  0  0  0  0
    5.5138    3.3185   -0.4668 C   0  0  0  0  0  0  0  0  0  0  0  0
    6.9768    1.5478   -1.2897 C   0  0  0  0  0  0  0  0  0  0  0  0
    6.8679    4.0221   -0.2467 C   0  0  0  0  0  0  0  0  0  0  0  0
    7.6568    1.7839    0.0698 C   0  0  0  0  0  0  0  0  0  0  0  0
   -0.1133   -3.9704   -0.4561 C   0  0  0  0  0  0  0  0  0  0  0  0
   -0.9380    0.4418   -0.7029 C   0  0  0  0  0  0  0  0  0  0  0  0
   -3.0889   -0.3361   -0.0007 C   0  0  0  0  0  0  0  0  0  0  0  0
    0.0626   -5.4308   -0.1344 C   0  0  0  0  0  0  0  0  0  0  0  0
   -2.3124    0.6925   -0.5582 C   0  0  0  0  0  0  0  0  0  0  0  0
   -0.5554   -3.0917    0.7364 C   0  0  0  0  0  0  0  0  0  0  0  0
   -1.4979   -3.7894    1.7347 C   0  0  0  0  0  0  0  0  0  0  0  0
   -0.3775   -0.7677   -0.2740 C   0  0  0  0  0  0  0  0  0  0  0  0
   -2.5294   -1.5579    0.3985 C   0  0  0  0  0  0  0  0  0  0  0  0
    1.9380   -0.0781   -0.0104 C   0  0  0  0  0  0  0  0  0  0  0  0
   -1.1642   -1.7902    0.2727 C   0  0  0  0  0  0  0  0  0  0  0  0
   -2.9008    2.0735   -0.9321 C   0  0  0  0  0  0  0  0  0  0  0  0
   -2.9785   -3.7766    1.2585 C   0  0  0  0  0  0  0  0  0  0  0  0
   -6.1765    6.6894    2.9367 N   0  0  0  0  0  0  0  0  0  0  0  0
    5.6468    2.1721   -1.3862 N   0  0  0  0  0  0  0  0  0  0  0  0
    1.7041    1.0301    0.4499 O   0  0  0  0  0  0  0  0  0  0  0  0
    7.8473    3.1740    0.3720 O   0  0  0  0  0  0  0  0  0  0  0  0
    1.0001   -1.0247   -0.4325 O   0  0  0  0  0  0  0  0  0  0  0  0
   -3.4204   -2.4425    0.9349 O   0  0  0  0  0  0  0  0  0  0  0  0
    1.6720   -5.9085   -1.4630 H   0  0  0  0  0  0  0  0  0  0  0  0
    0.7646   -7.3241   -0.9205 H   0  0  0  0  0  0  0  0  0  0  0  0
    0.0557   -6.2333   -2.1209 H   0  0  0  0  0  0  0  0  0  0  0  0
   -4.8540    3.0502   -1.2203 H   0  0  0  0  0  0  0  0  0  0  0  0
   -4.8119    1.9412    0.1505 H   0  0  0  0  0  0  0  0  0  0  0  0
   -4.8832    1.3136   -1.5010 H   0  0  0  0  0  0  0  0  0  0  0  0
   -1.4342    2.5479   -2.5095 H   0  0  0  0  0  0  0  0  0  0  0  0
   -2.9739    3.3628   -2.7175 H   0  0  0  0  0  0  0  0  0  0  0  0
   -2.8372    1.6452   -3.0822 H   0  0  0  0  0  0  0  0  0  0  0  0
   -4.9565   -4.0067    2.1730 H   0  0  0  0  0  0  0  0  0  0  0  0
   -3.8066   -5.2659    2.6597 H   0  0  0  0  0  0  0  0  0  0  0  0
   -3.6925   -3.6195    3.3212 H   0  0  0  0  0  0  0  0  0  0  0  0
   -2.8375   -4.3344   -0.8604 H   0  0  0  0  0  0  0  0  0  0  0  0
   -4.3914   -4.6416   -0.1513 H   0  0  0  0  0  0  0  0  0  0  0  0
   -3.0492   -5.7194    0.2393 H   0  0  0  0  0  0  0  0  0  0  0  0
   -3.5119    4.5385    2.0712 H   0  0  0  0  0  0  0  0  0  0  0  0
   -4.7828    4.1842    0.9104 H   0  0  0  0  0  0  0  0  0  0  0  0
   -3.2232    4.8043   -0.9770 H   0  0  0  0  0  0  0  0  0  0  0  0
   -1.9982    5.2331    0.2000 H   0  0  0  0  0  0  0  0  0  0  0  0
   -3.4610    6.9209    1.3080 H   0  0  0  0  0  0  0  0  0  0  0  0
   -4.7204    6.5783    0.1244 H   0  0  0  0  0  0  0  0  0  0  0  0
    4.3229    0.9431    0.8250 H   0  0  0  0  0  0  0  0  0  0  0  0
    5.3803   -0.2210    0.0287 H   0  0  0  0  0  0  0  0  0  0  0  0
    3.3620   -1.1991   -1.1450 H   0  0  0  0  0  0  0  0  0  0  0  0
    3.4378   -1.4316    0.6143 H   0  0  0  0  0  0  0  0  0  0  0  0
   -0.1343   -7.0071    1.2525 H   0  0  0  0  0  0  0  0  0  0  0  0
   -1.6960   -5.7705    2.6393 H   0  0  0  0  0  0  0  0  0  0  0  0
   -0.1516   -4.9949    2.9127 H   0  0  0  0  0  0  0  0  0  0  0  0
   -1.2095    3.1810   -0.1306 H   0  0  0  0  0  0  0  0  0  0  0  0
   -2.3719    2.7319    1.0916 H   0  0  0  0  0  0  0  0  0  0  0  0
    3.5839    1.8067   -1.4280 H   0  0  0  0  0  0  0  0  0  0  0  0
    4.5643    0.6052   -2.2163 H   0  0  0  0  0  0  0  0  0  0  0  0
    4.8037    4.0358   -0.8956 H   0  0  0  0  0  0  0  0  0  0  0  0
    5.1298    3.0020    0.5110 H   0  0  0  0  0  0  0  0  0  0  0  0
    7.6027    2.0108   -2.0646 H   0  0  0  0  0  0  0  0  0  0  0  0
    6.9470    0.4758   -1.5236 H   0  0  0  0  0  0  0  0  0  0  0  0
    7.2822    4.3818   -1.1951 H   0  0  0  0  0  0  0  0  0  0  0  0
    6.7313    4.8944    0.3988 H   0  0  0  0  0  0  0  0  0  0  0  0
    7.0699    1.3443    0.8873 H   0  0  0  0  0  0  0  0  0  0  0  0
    8.6414    1.3006    0.0872 H   0  0  0  0  0  0  0  0  0  0  0  0
    0.8449   -3.5865   -0.8301 H   0  0  0  0  0  0  0  0  0  0  0  0
   -0.8077   -3.8734   -1.2977 H   0  0  0  0  0  0  0  0  0  0  0  0
   -0.2889    1.2037   -1.1287 H   0  0  0  0  0  0  0  0  0  0  0  0
   -4.1586   -0.2138    0.1538 H   0  0  0  0  0  0  0  0  0  0  0  0
    0.3505   -2.8460    1.3128 H   0  0  0  0  0  0  0  0  0  0  0  0
   -1.4815   -3.1633    2.6416 H   0  0  0  0  0  0  0  0  0  0  0  0
  1 23  1  0
  2 31  1  0
  3 31  1  0
  4 32  1  0
  5 32  1  0
  6  7  1  0
  6  8  1  0
  7 13  1  0
  8 14  1  0
  9 10  1  0
  9 15  1  0
 10 29  1  0
 11 12  1  0
 11 23  2  0
 12 26  1  0
 13 31  1  0
 14 33  3  0
 15 34  1  0
 16 18  1  0
 16 34  1  0
 17 19  1  0
 17 34  1  0
 18 36  1  0
 19 36  1  0
 20 23  1  0
 20 25  1  0
 21 24  2  0
 21 27  1  0
 22 24  1  0
 22 28  2  0
 24 31  1  0
 25 26  1  0
 25 30  1  0
 26 32  1  0
 27 30  2  0
 27 37  1  0
 28 30  1  0
 28 38  1  0
 29 35  2  0
 29 37  1  0
 32 38  1  0
  1 39  1  0
  1 40  1  0
  1 41  1  0
  2 42  1  0
  2 43  1  0
  2 44  1  0
  3 45  1  0
  3 46  1  0
  3 47  1  0
  4 48  1  0
  4 49  1  0
  4 50  1  0
  5 51  1  0
  5 52  1  0
  5 53  1  0
  6 54  1  0
  6 55  1  0
  7 56  1  0
  7 57  1  0
  8 58  1  0
  8 59  1  0
  9 60  1  0
  9 61  1  0
 10 62  1  0
 10 63  1  0
 11 64  1  0
 12 65  1  0
 12 66  1  0
 13 67  1  0
 13 68  1  0
 15 69  1  0
 15 70  1  0
 16 71  1  0
 16 72  1  0
 17 73  1  0
 17 74  1  0
 18 75  1  0
 18 76  1  0
 19 77  1  0
 19 78  1  0
 20 79  1  0
 20 80  1  0
 21 81  1  0
 22 82  1  0
 25 83  1  0
 26 84  1  0
M  END
