
     RDKit          3D

 94 97  0  0  0  0  0  0  0  0999 V2000
   -4.7501   -4.5148    2.1170 C   0  0  0  0  0  0  0  0  0  0  0  0
    2.4205    3.7236   -3.2075 C   0  0  0  0  0  0  0  0  0  0  0  0
   -5.2734   -0.5994   -2.4738 C   0  0  0  0  0  0  0  0  0  0  0  0
   -4.7057   -0.7016    1.3763 C   0  0  0  0  0  0  0  0  0  0  0  0
   -2.1723    5.7225    0.0468 C   0  0  0  0  0  0  0  0  0  0  0  0
   -2.0120    6.1008   -2.4231 C   0  0  0  0  0  0  0  0  0  0  0  0
   -5.3083   -4.3875    0.7069 C   0  0  0  0  0  0  0  0  0  0  0  0
   -4.2352   -4.4750   -0.3792 C   0  0  0  0  0  0  0  0  0  0  0  0
    7.2506   -1.8560    2.7060 C   0  0  0  0  0  0  0  0  0  0  0  0
    7.2435   -3.3575    2.9547 C   0  0  0  0  0  0  0  0  0  0  0  0
   -3.2652   -3.2886   -0.4596 C   0  0  0  0  0  0  0  0  0  0  0  0
    6.6926   -1.4338    1.3486 C   0  0  0  0  0  0  0  0  0  0  0  0
    5.8696   -4.0111    2.8661 C   0  0  0  0  0  0  0  0  0  0  0  0
    2.0116   -2.3681    0.8630 C   0  0  0  0  0  0  0  0  0  0  0  0
   -3.6501   -2.2162   -1.4864 C   0  0  0  0  0  0  0  0  0  0  0  0
    2.0332   -0.9141    0.4065 C   0  0  0  0  0  0  0  0  0  0  0  0
    2.1808    5.2026   -1.1580 C   0  0  0  0  0  0  0  0  0  0  0  0
    0.7595    5.6704   -1.4732 C   0  0  0  0  0  0  0  0  0  0  0  0
    5.1598   -1.4526    1.2938 C   0  0  0  0  0  0  0  0  0  0  0  0
    5.2608   -3.9422    1.4647 C   0  0  0  0  0  0  0  0  0  0  0  0
    3.1514   -2.7637    1.8076 C   0  0  0  0  0  0  0  0  0  0  0  0
    1.4306    2.8200   -1.0453 C   0  0  0  0  0  0  0  0  0  0  0  0
   -2.1050    0.3011    0.1174 C   0  0  0  0  0  0  0  0  0  0  0  0
   -3.5195    1.9652   -0.8507 C   0  0  0  0  0  0  0  0  0  0  0  0
    2.4450    3.7897   -1.6766 C   0  0  0  0  0  0  0  0  0  0  0  0
   -4.8311   -1.2744   -1.1587 C   0  0  0  0  0  0  0  0  0  0  0  0
   -4.6104   -0.1785   -0.0631 C   0  0  0  0  0  0  0  0  0  0  0  0
   -3.3862    0.7011   -0.2669 C   0  0  0  0  0  0  0  0  0  0  0  0
    0.0060    3.3233   -1.0133 C   0  0  0  0  0  0  0  0  0  0  0  0
   -0.3083    4.6165   -1.2507 C   0  0  0  0  0  0  0  0  0  0  0  0
   -0.9862    1.1150   -0.1352 C   0  0  0  0  0  0  0  0  0  0  0  0
   -2.4080    2.7997   -1.0369 C   0  0  0  0  0  0  0  0  0  0  0  0
    0.7096   -0.5498   -0.2229 C   0  0  0  0  0  0  0  0  0  0  0  0
   -1.1081    2.3911   -0.7134 C   0  0  0  0  0  0  0  0  0  0  0  0
   -1.7630    5.0867   -1.2920 C   0  0  0  0  0  0  0  0  0  0  0  0
    4.4759   -2.7439    1.1655 N   0  0  0  0  0  0  0  0  0  0  0  0
    0.1438   -1.2197   -1.0765 O   0  0  0  0  0  0  0  0  0  0  0  0
    0.2638    0.6539    0.3188 O   0  0  0  0  0  0  0  0  0  0  0  0
   -2.6940    4.0221   -1.5812 O   0  0  0  0  0  0  0  0  0  0  0  0
   -5.5710   -4.4907    2.8447 H   0  0  0  0  0  0  0  0  0  0  0  0
   -4.2136   -5.4623    2.2445 H   0  0  0  0  0  0  0  0  0  0  0  0
   -4.0643   -3.6971    2.3599 H   0  0  0  0  0  0  0  0  0  0  0  0
    1.4275    3.9295   -3.6214 H   0  0  0  0  0  0  0  0  0  0  0  0
    3.1240    4.4473   -3.6346 H   0  0  0  0  0  0  0  0  0  0  0  0
    2.7181    2.7270   -3.5511 H   0  0  0  0  0  0  0  0  0  0  0  0
   -6.1307    0.0623   -2.3076 H   0  0  0  0  0  0  0  0  0  0  0  0
   -5.5816   -1.3526   -3.2077 H   0  0  0  0  0  0  0  0  0  0  0  0
   -4.4645   -0.0123   -2.9195 H   0  0  0  0  0  0  0  0  0  0  0  0
   -5.6218   -1.2830    1.5178 H   0  0  0  0  0  0  0  0  0  0  0  0
   -3.8578   -1.3195    1.6769 H   0  0  0  0  0  0  0  0  0  0  0  0
   -4.7451    0.1401    2.0802 H   0  0  0  0  0  0  0  0  0  0  0  0
   -3.2369    5.9912    0.0379 H   0  0  0  0  0  0  0  0  0  0  0  0
   -2.0392    5.0201    0.8794 H   0  0  0  0  0  0  0  0  0  0  0  0
   -1.5905    6.6252    0.2677 H   0  0  0  0  0  0  0  0  0  0  0  0
   -1.4826    7.0470   -2.2637 H   0  0  0  0  0  0  0  0  0  0  0  0
   -3.0826    6.3251   -2.5151 H   0  0  0  0  0  0  0  0  0  0  0  0
   -1.6994    5.6864   -3.3901 H   0  0  0  0  0  0  0  0  0  0  0  0
   -6.0201   -5.2065    0.5521 H   0  0  0  0  0  0  0  0  0  0  0  0
   -5.8825   -3.4630    0.6224 H   0  0  0  0  0  0  0  0  0  0  0  0
   -4.7194   -4.6228   -1.3527 H   0  0  0  0  0  0  0  0  0  0  0  0
   -3.6471   -5.3853   -0.1964 H   0  0  0  0  0  0  0  0  0  0  0  0
    6.7075   -1.3457    3.5101 H   0  0  0  0  0  0  0  0  0  0  0  0
    8.2894   -1.5099    2.7725 H   0  0  0  0  0  0  0  0  0  0  0  0
    7.9237   -3.8448    2.2453 H   0  0  0  0  0  0  0  0  0  0  0  0
    7.6553   -3.5449    3.9541 H   0  0  0  0  0  0  0  0  0  0  0  0
   -3.0592   -2.8618    0.5209 H   0  0  0  0  0  0  0  0  0  0  0  0
   -2.3041   -3.6969   -0.8001 H   0  0  0  0  0  0  0  0  0  0  0  0
    7.0098   -0.3966    1.1717 H   0  0  0  0  0  0  0  0  0  0  0  0
    7.1327   -2.0258    0.5371 H   0  0  0  0  0  0  0  0  0  0  0  0
    5.1950   -3.5828    3.6167 H   0  0  0  0  0  0  0  0  0  0  0  0
    5.9875   -5.0698    3.1335 H   0  0  0  0  0  0  0  0  0  0  0  0
    2.0129   -3.0273   -0.0145 H   0  0  0  0  0  0  0  0  0  0  0  0
    1.0637   -2.5679    1.3832 H   0  0  0  0  0  0  0  0  0  0  0  0
   -2.7605   -1.6172   -1.7136 H   0  0  0  0  0  0  0  0  0  0  0  0
   -3.8717   -2.7424   -2.4259 H   0  0  0  0  0  0  0  0  0  0  0  0
    2.2225   -0.2589    1.2640 H   0  0  0  0  0  0  0  0  0  0  0  0
    2.8077   -0.7341   -0.3444 H   0  0  0  0  0  0  0  0  0  0  0  0
    2.9041    5.9110   -1.5779 H   0  0  0  0  0  0  0  0  0  0  0  0
    2.3322    5.2201   -0.0695 H   0  0  0  0  0  0  0  0  0  0  0  0
    0.5496    6.5523   -0.8558 H   0  0  0  0  0  0  0  0  0  0  0  0
    0.7230    5.9950   -2.5191 H   0  0  0  0  0  0  0  0  0  0  0  0
    4.8757   -0.8557    0.4210 H   0  0  0  0  0  0  0  0  0  0  0  0
    4.7939   -0.8976    2.1684 H   0  0  0  0  0  0  0  0  0  0  0  0
    4.6225   -4.8245    1.3197 H   0  0  0  0  0  0  0  0  0  0  0  0
    6.0446   -4.0616    0.7064 H   0  0  0  0  0  0  0  0  0  0  0  0
    3.1294   -2.1509    2.7183 H   0  0  0  0  0  0  0  0  0  0  0  0
    2.9130   -3.7793    2.1516 H   0  0  0  0  0  0  0  0  0  0  0  0
    1.7536    2.6298   -0.0131 H   0  0  0  0  0  0  0  0  0  0  0  0
    1.4834    1.8718   -1.5936 H   0  0  0  0  0  0  0  0  0  0  0  0
   -1.9557   -0.6633    0.5947 H   0  0  0  0  0  0  0  0  0  0  0  0
   -4.4991    2.3261   -1.1567 H   0  0  0  0  0  0  0  0  0  0  0  0
    3.4504    3.4869   -1.3589 H   0  0  0  0  0  0  0  0  0  0  0  0
   -5.6858   -1.8854   -0.8483 H   0  0  0  0  0  0  0  0  0  0  0  0
   -5.4829    0.4891   -0.1373 H   0  0  0  0  0  0  0  0  0  0  0  0
  1  7  1  0
  2 25  1  0
  3 26  1  0
  4 27  1  0
  5 35  1  0
  6 35  1  0
  7  8  1  0
  8 11  1  0
  9 10  1  0
  9 12  1  0
 10 13  1  0
 11 15  1  0
 12 19  1  0
 13 20  1  0
 14 16  1  0
 14 21  1  0
 15 26  1  0
 16 33  1  0
 17 18  1  0
 17 25  1  0
 18 30  1  0
 19 36  1  0
 20 36  1  0
 21 36  1  0
 22 25  1  0
 22 29  1  0
 23 28  2  0
 23 31  1  0
 24 28  1  0
 24 32  2  0
 26 27  1  0
 27 28  1  0
 29 30  2  0
 29 34  1  0
 30 35  1  0
 31 34  2  0
 31 38  1  0
 32 34  1  0
 32 39  1  0
 33 37  2  0
 33 38  1  0
 35 39  1  0
  1 40  1  0
  1 41  1  0
  1 42  1  0
  2 43  1  0
  2 44  1  0
  2 45  1  0
  3 46  1  0
  3 47  1  0
  3 48  1  0
  4 49  1  0
  4 50  1  0
  4 51  1  0
  5 52  1  0
  5 53  1  0
  5 54  1  0
  6 55  1  0
  6 56  1  0
  6 57  1  0
  7 58  1  0
  7 59  1  0
  8 60  1  0
  8 61  1  0
  9 62  1  0
  9 63  1  0
 10 64  1  0
 10 65  1  0
 11 66  1  0
 11 67  1  0
 12 68  1  0
 12 69  1  0
 13 70  1  0
 13 71  1  0
 14 72  1  0
 14 73  1  0
 15 74  1  0
 15 75  1  0
 16 76  1  0
 16 77  1  0
 17 78  1  0
 17 79  1  0
 18 80  1  0
 18 81  1  0
 19 82  1  0
 19 83  1  0
 20 84  1  0
 20 85  1  0
 21 86  1  0
 21 87  1  0
 22 88  1  0
 22 89  1  0
 23 90  1  0
 24 91  1  0
 25 92  1  0
 26 93  1  0
 27 94  1  0
M  END
