
     RDKit          3D

 98101  0  0  0  0  0  0  0  0999 V2000
    8.7640   -3.7890   -1.7579 C   0  0  0  0  0  0  0  0  0  0  0  0
   -2.6498    7.1409    3.0443 C   0  0  0  0  0  0  0  0  0  0  0  0
    2.8195   -3.0888   -0.9781 C   0  0  0  0  0  0  0  0  0  0  0  0
   -3.2029   -0.3476   -2.5996 C   0  0  0  0  0  0  0  0  0  0  0  0
   -5.5167   -3.4636   -2.1680 C   0  0  0  0  0  0  0  0  0  0  0  0
    1.9267   -3.5047    2.0600 C   0  0  0  0  0  0  0  0  0  0  0  0
    3.5528    4.7208    1.8947 C   0  0  0  0  0  0  0  0  0  0  0  0
    3.5515    3.6775   -0.3818 C   0  0  0  0  0  0  0  0  0  0  0  0
    8.2341   -2.3966   -2.0637 C   0  0  0  0  0  0  0  0  0  0  0  0
   -2.1322    6.0823    2.8105 C   0  0  0  0  0  0  0  0  0  0  0  0
    7.2258   -1.8894   -1.0293 C   0  0  0  0  0  0  0  0  0  0  0  0
    5.9353   -2.7158   -0.9593 C   0  0  0  0  0  0  0  0  0  0  0  0
   -8.1906   -2.2674    0.3369 C   0  0  0  0  0  0  0  0  0  0  0  0
   -8.1653   -0.8207   -0.1589 C   0  0  0  0  0  0  0  0  0  0  0  0
    4.9343   -2.0756    0.0122 C   0  0  0  0  0  0  0  0  0  0  0  0
   -7.5060   -3.1992   -0.6534 C   0  0  0  0  0  0  0  0  0  0  0  0
   -3.5973   -0.9383   -0.1270 C   0  0  0  0  0  0  0  0  0  0  0  0
    0.8973    5.3324    0.6915 C   0  0  0  0  0  0  0  0  0  0  0  0
   -1.4968    4.7859    2.5208 C   0  0  0  0  0  0  0  0  0  0  0  0
   -7.1712   -0.6068   -1.3034 C   0  0  0  0  0  0  0  0  0  0  0  0
   -0.5919    5.4358    0.3244 C   0  0  0  0  0  0  0  0  0  0  0  0
   -5.1072   -0.6736   -0.0225 C   0  0  0  0  0  0  0  0  0  0  0  0
    0.8975   -0.9417    0.8836 C   0  0  0  0  0  0  0  0  0  0  0  0
    2.9355    0.0978    1.5769 C   0  0  0  0  0  0  0  0  0  0  0  0
   -1.0070    3.1271    0.8167 C   0  0  0  0  0  0  0  0  0  0  0  0
    3.6813   -2.9438    0.2831 C   0  0  0  0  0  0  0  0  0  0  0  0
   -2.8575   -0.0443   -1.1417 C   0  0  0  0  0  0  0  0  0  0  0  0
   -6.0513   -2.7512   -0.9216 C   0  0  0  0  0  0  0  0  0  0  0  0
    2.8873   -2.4273    1.5271 C   0  0  0  0  0  0  0  0  0  0  0  0
    2.2168   -1.0761    1.3238 C   0  0  0  0  0  0  0  0  0  0  0  0
    0.4870    2.8882    0.8866 C   0  0  0  0  0  0  0  0  0  0  0  0
    1.3752    3.9065    0.8699 C   0  0  0  0  0  0  0  0  0  0  0  0
    0.3252    0.3299    0.7003 C   0  0  0  0  0  0  0  0  0  0  0  0
    2.3621    1.3600    1.3780 C   0  0  0  0  0  0  0  0  0  0  0  0
    1.0317    1.5134    0.9722 C   0  0  0  0  0  0  0  0  0  0  0  0
   -1.3531   -0.1815   -0.9295 C   0  0  0  0  0  0  0  0  0  0  0  0
    2.8740    3.6671    0.9993 C   0  0  0  0  0  0  0  0  0  0  0  0
   -1.4533    4.5107    1.0759 N   0  0  0  0  0  0  0  0  0  0  0  0
   -5.8842   -1.2886   -1.1089 N   0  0  0  0  0  0  0  0  0  0  0  0
   -0.5682   -0.6934   -1.7157 O   0  0  0  0  0  0  0  0  0  0  0  0
   -1.0251    0.3846    0.3046 O   0  0  0  0  0  0  0  0  0  0  0  0
    3.1919    2.4142    1.6436 O   0  0  0  0  0  0  0  0  0  0  0  0
    9.1713   -3.8414   -0.7432 H   0  0  0  0  0  0  0  0  0  0  0  0
    7.9776   -4.5450   -1.8531 H   0  0  0  0  0  0  0  0  0  0  0  0
    9.5637   -4.0499   -2.4600 H   0  0  0  0  0  0  0  0  0  0  0  0
   -3.1145    8.0793    3.2341 H   0  0  0  0  0  0  0  0  0  0  0  0
    2.5181   -2.1167   -1.3783 H   0  0  0  0  0  0  0  0  0  0  0  0
    1.9166   -3.6738   -0.7835 H   0  0  0  0  0  0  0  0  0  0  0  0
    3.3699   -3.6131   -1.7664 H   0  0  0  0  0  0  0  0  0  0  0  0
   -3.0303   -1.4013   -2.8374 H   0  0  0  0  0  0  0  0  0  0  0  0
   -2.5790    0.2473   -3.2768 H   0  0  0  0  0  0  0  0  0  0  0  0
   -4.2441   -0.1034   -2.8291 H   0  0  0  0  0  0  0  0  0  0  0  0
   -4.4533   -3.2553   -2.3193 H   0  0  0  0  0  0  0  0  0  0  0  0
   -5.6266   -4.5478   -2.0712 H   0  0  0  0  0  0  0  0  0  0  0  0
   -6.0556   -3.1540   -3.0691 H   0  0  0  0  0  0  0  0  0  0  0  0
    1.4199   -3.1635    2.9689 H   0  0  0  0  0  0  0  0  0  0  0  0
    1.1517   -3.7767    1.3370 H   0  0  0  0  0  0  0  0  0  0  0  0
    2.4764   -4.4211    2.3124 H   0  0  0  0  0  0  0  0  0  0  0  0
    3.0886    4.7500    2.8881 H   0  0  0  0  0  0  0  0  0  0  0  0
    4.6078    4.4694    2.0579 H   0  0  0  0  0  0  0  0  0  0  0  0
    3.5135    5.7237    1.4577 H   0  0  0  0  0  0  0  0  0  0  0  0
    3.1023    2.9305   -1.0497 H   0  0  0  0  0  0  0  0  0  0  0  0
    4.6140    3.4210   -0.2950 H   0  0  0  0  0  0  0  0  0  0  0  0
    3.4732    4.6570   -0.8656 H   0  0  0  0  0  0  0  0  0  0  0  0
    7.7817   -2.3867   -3.0648 H   0  0  0  0  0  0  0  0  0  0  0  0
    9.0810   -1.6992   -2.0889 H   0  0  0  0  0  0  0  0  0  0  0  0
    6.9743   -0.8509   -1.2781 H   0  0  0  0  0  0  0  0  0  0  0  0
    7.6987   -1.8717   -0.0387 H   0  0  0  0  0  0  0  0  0  0  0  0
    5.4957   -2.7848   -1.9596 H   0  0  0  0  0  0  0  0  0  0  0  0
    6.1621   -3.7337   -0.6227 H   0  0  0  0  0  0  0  0  0  0  0  0
   -7.6767   -2.3257    1.3048 H   0  0  0  0  0  0  0  0  0  0  0  0
   -9.2247   -2.5876    0.5148 H   0  0  0  0  0  0  0  0  0  0  0  0
   -7.9294   -0.1573    0.6826 H   0  0  0  0  0  0  0  0  0  0  0  0
   -9.1676   -0.5376   -0.5036 H   0  0  0  0  0  0  0  0  0  0  0  0
    4.6384   -1.0944   -0.3806 H   0  0  0  0  0  0  0  0  0  0  0  0
    5.4470   -1.8977    0.9664 H   0  0  0  0  0  0  0  0  0  0  0  0
   -8.0857   -3.2271   -1.5869 H   0  0  0  0  0  0  0  0  0  0  0  0
   -7.5060   -4.2213   -0.2545 H   0  0  0  0  0  0  0  0  0  0  0  0
   -3.3886   -1.9923   -0.3410 H   0  0  0  0  0  0  0  0  0  0  0  0
   -3.1791   -0.7636    0.8736 H   0  0  0  0  0  0  0  0  0  0  0  0
    1.4787    5.8241   -0.0995 H   0  0  0  0  0  0  0  0  0  0  0  0
    1.0706    5.8889    1.6217 H   0  0  0  0  0  0  0  0  0  0  0  0
   -0.5069    4.7408    2.9889 H   0  0  0  0  0  0  0  0  0  0  0  0
   -2.1064    4.0170    3.0129 H   0  0  0  0  0  0  0  0  0  0  0  0
   -7.6158   -0.9619   -2.2421 H   0  0  0  0  0  0  0  0  0  0  0  0
   -7.0150    0.4675   -1.4599 H   0  0  0  0  0  0  0  0  0  0  0  0
   -0.7084    5.2171   -0.7489 H   0  0  0  0  0  0  0  0  0  0  0  0
   -0.9299    6.4748    0.4354 H   0  0  0  0  0  0  0  0  0  0  0  0
   -5.4679   -1.0300    0.9518 H   0  0  0  0  0  0  0  0  0  0  0  0
   -5.2492    0.4145   -0.0171 H   0  0  0  0  0  0  0  0  0  0  0  0
    0.2965   -1.8211    0.6680 H   0  0  0  0  0  0  0  0  0  0  0  0
    3.9654    0.0423    1.9237 H   0  0  0  0  0  0  0  0  0  0  0  0
   -1.3474    2.8640   -0.1941 H   0  0  0  0  0  0  0  0  0  0  0  0
   -1.5346    2.4632    1.5124 H   0  0  0  0  0  0  0  0  0  0  0  0
    4.0446   -3.9512    0.5379 H   0  0  0  0  0  0  0  0  0  0  0  0
   -3.1056    1.0098   -0.9595 H   0  0  0  0  0  0  0  0  0  0  0  0
   -5.4473   -3.0989   -0.0697 H   0  0  0  0  0  0  0  0  0  0  0  0
    3.6170   -2.2944    2.3405 H   0  0  0  0  0  0  0  0  0  0  0  0
  1  9  1  0
  2 10  3  0
  3 26  1  0
  4 27  1  0
  5 28  1  0
  6 29  1  0
  7 37  1  0
  8 37  1  0
  9 11  1  0
 10 19  1  0
 11 12  1  0
 12 15  1  0
 13 14  1  0
 13 16  1  0
 14 20  1  0
 15 26  1  0
 16 28  1  0
 17 22  1  0
 17 27  1  0
 18 21  1  0
 18 32  1  0
 19 38  1  0
 20 39  1  0
 21 38  1  0
 22 39  1  0
 23 30  2  0
 23 33  1  0
 24 30  1  0
 24 34  2  0
 25 31  1  0
 25 38  1  0
 26 29  1  0
 27 36  1  0
 28 39  1  0
 29 30  1  0
 31 32  2  0
 31 35  1  0
 32 37  1  0
 33 35  2  0
 33 41  1  0
 34 35  1  0
 34 42  1  0
 36 40  2  0
 36 41  1  0
 37 42  1  0
  1 43  1  0
  1 44  1  0
  1 45  1  0
  2 46  1  0
  3 47  1  0
  3 48  1  0
  3 49  1  0
  4 50  1  0
  4 51  1  0
  4 52  1  0
  5 53  1  0
  5 54  1  0
  5 55  1  0
  6 56  1  0
  6 57  1  0
  6 58  1  0
  7 59  1  0
  7 60  1  0
  7 61  1  0
  8 62  1  0
  8 63  1  0
  8 64  1  0
  9 65  1  0
  9 66  1  0
 11 67  1  0
 11 68  1  0
 12 69  1  0
 12 70  1  0
 13 71  1  0
 13 72  1  0
 14 73  1  0
 14 74  1  0
 15 75  1  0
 15 76  1  0
 16 77  1  0
 16 78  1  0
 17 79  1  0
 17 80  1  0
 18 81  1  0
 18 82  1  0
 19 83  1  0
 19 84  1  0
 20 85  1  0
 20 86  1  0
 21 87  1  0
 21 88  1  0
 22 89  1  0
 22 90  1  0
 23 91  1  0
 24 92  1  0
 25 93  1  0
 25 94  1  0
 26 95  1  0
 27 96  1  0
 28 97  1  0
 29 98  1  0
M  END
