
     RDKit          3D

 12 11  0  0  0  0  0  0  0  0999 V2000
    1.7961    0.3001   -0.0621 C   0  0  0  0  0  0  0  0  0  0  0  0
   -1.8675    0.0386   -0.0645 C   0  0  0  0  0  0  0  0  0  0  0  0
    0.3949   -0.3221   -0.0603 C   0  0  0  0  0  0  0  0  0  0  0  0
    2.0303    1.4548    1.2786 Cl  0  0  0  0  0  0  0  0  0  0  0  0
    2.7457   -0.6725    0.0433 F   0  0  0  0  0  0  0  0  0  0  0  0
   -2.7764    0.7606   -0.7645 F   0  0  0  0  0  0  0  0  0  0  0  0
   -2.1709    0.1967    1.2438 F   0  0  0  0  0  0  0  0  0  0  0  0
    0.1400   -0.9811    1.0950 F   0  0  0  0  0  0  0  0  0  0  0  0
    0.2981   -1.2364   -1.0629 F   0  0  0  0  0  0  0  0  0  0  0  0
   -0.6173    0.6343   -0.2914 O   0  0  0  0  0  0  0  0  0  0  0  0
    1.9752    0.8406   -0.9960 H   0  0  0  0  0  0  0  0  0  0  0  0
   -1.9481   -1.0135   -0.3588 H   0  0  0  0  0  0  0  0  0  0  0  0
  1  3  1  0
  1  4  1  0
  1  5  1  0
  2  6  1  0
  2  7  1  0
  2 10  1  0
  3  8  1  0
  3  9  1  0
  3 10  1  0
  1 11  1  0
  2 12  1  0
M  END
