
     RDKit          3D

 13 12  0  0  0  0  0  0  0  0999 V2000
   -0.2452    1.3521    0.1478 C   0  0  0  0  0  0  0  0  0  0  0  0
   -1.2144   -0.9330   -0.2033 C   0  0  0  0  0  0  0  0  0  0  0  0
    0.0440   -0.0773   -0.2997 C   0  0  0  0  0  0  0  0  0  0  0  0
    2.3344   -0.3914    0.0576 N   0  0  0  0  0  0  0  0  0  0  0  0
    3.1979   -0.8790    0.7931 O   0  0  0  0  0  0  0  0  0  0  0  0
    1.0225   -0.6614    0.5638 O   0  0  0  0  0  0  0  0  0  0  0  0
   -0.5583    1.3787    1.1975 H   0  0  0  0  0  0  0  0  0  0  0  0
    0.6544    1.9721    0.0726 H   0  0  0  0  0  0  0  0  0  0  0  0
   -1.0292    1.8082   -0.4645 H   0  0  0  0  0  0  0  0  0  0  0  0
   -1.5800   -0.9814    0.8285 H   0  0  0  0  0  0  0  0  0  0  0  0
   -0.9984   -1.9627   -0.5088 H   0  0  0  0  0  0  0  0  0  0  0  0
   -2.0125   -0.5408   -0.8409 H   0  0  0  0  0  0  0  0  0  0  0  0
    0.3848   -0.0842   -1.3439 H   0  0  0  0  0  0  0  0  0  0  0  0
  1  3  1  0
  2  3  1  0
  3  6  1  0
  4  5  2  0
  4  6  1  0
  1  7  1  0
  1  8  1  0
  1  9  1  0
  2 10  1  0
  2 11  1  0
  2 12  1  0
  3 13  1  0
M  END
