
     RDKit          3D

 15 16  0  0  0  0  0  0  0  0999 V2000
   -1.8455   -1.0456   -0.0176 C   0  0  0  0  0  0  0  0  0  0  0  0
   -0.5277   -1.5131    0.0682 C   0  0  0  0  0  0  0  0  0  0  0  0
   -1.1073    1.2860   -0.1260 C   0  0  0  0  0  0  0  0  0  0  0  0
   -2.1258    0.3245   -0.1125 C   0  0  0  0  0  0  0  0  0  0  0  0
    0.2147    0.8324   -0.0408 C   0  0  0  0  0  0  0  0  0  0  0  0
    0.4570   -0.5332    0.0522 C   0  0  0  0  0  0  0  0  0  0  0  0
    2.2828    0.5553    0.0663 C   0  0  0  0  0  0  0  0  0  0  0  0
   -3.7669    0.8403   -0.2154 Cl  0  0  0  0  0  0  0  0  0  0  0  0
    1.4029    1.5183   -0.0302 N   0  0  0  0  0  0  0  0  0  0  0  0
    3.5890    0.6776    0.1161 O   0  0  0  0  0  0  0  0  0  0  0  0
    1.8105   -0.7146    0.1223 O   0  0  0  0  0  0  0  0  0  0  0  0
   -2.6626   -1.7651   -0.0100 H   0  0  0  0  0  0  0  0  0  0  0  0
   -0.2888   -2.5667    0.1422 H   0  0  0  0  0  0  0  0  0  0  0  0
   -1.3206    2.3461   -0.1993 H   0  0  0  0  0  0  0  0  0  0  0  0
    3.8884   -0.2422    0.1847 H   0  0  0  0  0  0  0  0  0  0  0  0
  1  2  2  0
  1  4  1  0
  2  6  1  0
  3  4  2  0
  3  5  1  0
  4  8  1  0
  5  6  2  0
  5  9  1  0
  6 11  1  0
  7  9  2  0
  7 10  1  0
  7 11  1  0
  1 12  1  0
  2 13  1  0
  3 14  1  0
 10 15  1  0
M  END
