
     RDKit          3D

 15 16  0  0  0  0  0  0  0  0999 V2000
   -1.9029    0.8625   -0.0164 C   0  0  0  0  0  0  0  0  0  0  0  0
   -2.0171   -0.5264    0.1758 C   0  0  0  0  0  0  0  0  0  0  0  0
   -0.6463    1.4610   -0.1439 C   0  0  0  0  0  0  0  0  0  0  0  0
   -0.8758   -1.3306    0.2424 C   0  0  0  0  0  0  0  0  0  0  0  0
    2.4456   -0.2096   -0.0322 C   0  0  0  0  0  0  0  0  0  0  0  0
    0.4619    0.6442   -0.0743 C   0  0  0  0  0  0  0  0  0  0  0  0
    0.3503   -0.7138    0.1136 C   0  0  0  0  0  0  0  0  0  0  0  0
    1.7560    1.0493   -0.1770 O   0  0  0  0  0  0  0  0  0  0  0  0
    1.5601   -1.3336    0.1527 O   0  0  0  0  0  0  0  0  0  0  0  0
   -2.8004    1.4747   -0.0660 H   0  0  0  0  0  0  0  0  0  0  0  0
   -3.0020   -0.9773    0.2733 H   0  0  0  0  0  0  0  0  0  0  0  0
   -0.5441    2.5298   -0.2923 H   0  0  0  0  0  0  0  0  0  0  0  0
   -0.9495   -2.4018    0.3901 H   0  0  0  0  0  0  0  0  0  0  0  0
    3.1148   -0.1449    0.8336 H   0  0  0  0  0  0  0  0  0  0  0  0
    3.0495   -0.3836   -0.9303 H   0  0  0  0  0  0  0  0  0  0  0  0
  1  2  2  0
  1  3  1  0
  2  4  1  0
  3  6  2  0
  4  7  2  0
  5  8  1  0
  5  9  1  0
  6  7  1  0
  6  8  1  0
  7  9  1  0
  1 10  1  0
  2 11  1  0
  3 12  1  0
  4 13  1  0
  5 14  1  0
  5 15  1  0
M  END
