
     RDKit          3D

 19 20  0  0  0  0  0  0  0  0999 V2000
   -1.3483   -0.8831   -0.6935 C   0  0  0  0  0  0  0  0  0  0  0  0
    1.1552   -0.9390   -0.0692 C   0  0  0  0  0  0  0  0  0  0  0  0
   -1.9461   -0.1775    0.5127 C   0  0  0  0  0  0  0  0  0  0  0  0
    2.1150    0.2270    0.1371 C   0  0  0  0  0  0  0  0  0  0  0  0
    0.0273   -0.2714   -0.8316 C   0  0  0  0  0  0  0  0  0  0  0  0
   -1.1959    1.1331    0.5754 C   0  0  0  0  0  0  0  0  0  0  0  0
    1.1732    1.4026    0.2952 C   0  0  0  0  0  0  0  0  0  0  0  0
   -0.0653    1.0316   -0.2312 N   0  0  0  0  0  0  0  0  0  0  0  0
   -1.5665    2.0941    1.2297 O   0  0  0  0  0  0  0  0  0  0  0  0
    1.5077    2.4923    0.7293 O   0  0  0  0  0  0  0  0  0  0  0  0
   -1.9485   -0.6411   -1.5798 H   0  0  0  0  0  0  0  0  0  0  0  0
   -1.3363   -1.9720   -0.5894 H   0  0  0  0  0  0  0  0  0  0  0  0
    0.8147   -1.3190    0.9021 H   0  0  0  0  0  0  0  0  0  0  0  0
    1.6088   -1.7680   -0.6197 H   0  0  0  0  0  0  0  0  0  0  0  0
   -3.0186   -0.0072    0.3889 H   0  0  0  0  0  0  0  0  0  0  0  0
   -1.7589   -0.7332    1.4366 H   0  0  0  0  0  0  0  0  0  0  0  0
    2.7265    0.0916    1.0322 H   0  0  0  0  0  0  0  0  0  0  0  0
    2.7495    0.3921   -0.7390 H   0  0  0  0  0  0  0  0  0  0  0  0
    0.3066   -0.1531   -1.8860 H   0  0  0  0  0  0  0  0  0  0  0  0
  1  3  1  0
  1  5  1  0
  2  4  1  0
  2  5  1  0
  3  6  1  0
  4  7  1  0
  5  8  1  0
  6  8  1  0
  6  9  2  0
  7  8  1  0
  7 10  2  0
  1 11  1  0
  1 12  1  0
  2 13  1  0
  2 14  1  0
  3 15  1  0
  3 16  1  0
  4 17  1  0
  4 18  1  0
  5 19  1  0
M  END
