
     RDKit          3D

 24 25  0  0  0  0  0  0  0  0999 V2000
    1.1330    0.9698   -0.5932 C   0  0  0  0  0  0  0  0  0  0  0  0
   -1.5768   -0.1878    0.6155 C   0  0  0  0  0  0  0  0  0  0  0  0
   -0.6210   -0.8239   -0.3853 C   0  0  0  0  0  0  0  0  0  0  0  0
   -1.5146    0.3162   -0.7994 C   0  0  0  0  0  0  0  0  0  0  0  0
   -1.1653    0.6472    1.7516 C   0  0  0  0  0  0  0  0  0  0  0  0
    1.7049   -1.1309    0.6507 C   0  0  0  0  0  0  0  0  0  0  0  0
    0.8730   -0.5368   -0.5052 C   0  0  0  0  0  0  0  0  0  0  0  0
    1.3156   -1.2013   -1.7560 N   0  0  0  0  0  0  0  0  0  0  0  0
   -0.0372    0.6705    2.2063 O   0  0  0  0  0  0  0  0  0  0  0  0
   -2.1715    1.3880    2.2382 O   0  0  0  0  0  0  0  0  0  0  0  0
    2.7835   -0.7308    1.0604 O   0  0  0  0  0  0  0  0  0  0  0  0
    1.1696   -2.2635    1.1625 O   0  0  0  0  0  0  0  0  0  0  0  0
   -0.7754    2.7812   -0.2374 O   0  0  0  0  0  0  0  0  0  0  0  0
   -0.3805    1.8486   -2.5636 O   0  0  0  0  0  0  0  0  0  0  0  0
   -0.3945    1.7036   -1.1231 S   0  0  0  0  0  6  0  0  0  0  0  0
    1.9165    1.2334   -1.3110 H   0  0  0  0  0  0  0  0  0  0  0  0
    1.4020    1.4191    0.3663 H   0  0  0  0  0  0  0  0  0  0  0  0
   -2.4571   -0.7807    0.8542 H   0  0  0  0  0  0  0  0  0  0  0  0
   -0.8830   -1.8362   -0.6768 H   0  0  0  0  0  0  0  0  0  0  0  0
   -2.3356    0.1453   -1.4768 H   0  0  0  0  0  0  0  0  0  0  0  0
    1.1714   -2.2093   -1.6874 H   0  0  0  0  0  0  0  0  0  0  0  0
    0.7856   -0.8690   -2.5621 H   0  0  0  0  0  0  0  0  0  0  0  0
   -1.7586    1.9640    2.9154 H   0  0  0  0  0  0  0  0  0  0  0  0
    1.8161   -2.5164    1.8562 H   0  0  0  0  0  0  0  0  0  0  0  0
  1  7  1  0
  1 15  1  0
  2  3  1  0
  2  4  1  0
  2  5  1  0
  3  4  1  0
  3  7  1  0
  4 15  1  0
  5  9  2  0
  5 10  1  0
  6  7  1  0
  6 11  2  0
  6 12  1  0
  7  8  1  0
 13 15  2  0
 14 15  2  0
  1 16  1  0
  1 17  1  0
  2 18  1  0
  3 19  1  0
  4 20  1  0
  8 21  1  0
  8 22  1  0
 10 23  1  0
 12 24  1  0
M  END
