
     RDKit          3D

 22 22  0  0  0  0  0  0  0  0999 V2000
    0.3184   -1.0418    1.1123 C   0  0  0  0  0  0  0  0  0  0  0  0
    1.5858   -1.6004    0.9270 C   0  0  0  0  0  0  0  0  0  0  0  0
   -1.3870    0.7828    0.7143 C   0  0  0  0  0  0  0  0  0  0  0  0
   -2.3398    0.3577   -0.4080 C   0  0  0  0  0  0  0  0  0  0  0  0
    0.9482    0.8568   -0.2501 C   0  0  0  0  0  0  0  0  0  0  0  0
   -0.0096    0.1915    0.5301 C   0  0  0  0  0  0  0  0  0  0  0  0
    2.5296   -0.9283    0.1539 C   0  0  0  0  0  0  0  0  0  0  0  0
    2.2120    0.2959   -0.4330 C   0  0  0  0  0  0  0  0  0  0  0  0
   -3.6679    0.9396   -0.2210 N   0  0  0  0  0  0  0  0  0  0  0  0
    3.7732   -1.4621   -0.0371 O   0  0  0  0  0  0  0  0  0  0  0  0
    3.1502    0.9401   -1.1904 O   0  0  0  0  0  0  0  0  0  0  0  0
   -0.4129   -1.5753    1.7160 H   0  0  0  0  0  0  0  0  0  0  0  0
    1.8167   -2.5546    1.3896 H   0  0  0  0  0  0  0  0  0  0  0  0
   -1.3085    1.8772    0.7531 H   0  0  0  0  0  0  0  0  0  0  0  0
   -1.7866    0.4751    1.6895 H   0  0  0  0  0  0  0  0  0  0  0  0
   -2.4274   -0.7345   -0.4415 H   0  0  0  0  0  0  0  0  0  0  0  0
   -1.9477    0.6810   -1.3790 H   0  0  0  0  0  0  0  0  0  0  0  0
    0.6970    1.8089   -0.7093 H   0  0  0  0  0  0  0  0  0  0  0  0
   -4.2811    0.6210   -0.9710 H   0  0  0  0  0  0  0  0  0  0  0  0
   -4.0766    0.5906    0.6453 H   0  0  0  0  0  0  0  0  0  0  0  0
    3.8340   -2.3005    0.4448 H   0  0  0  0  0  0  0  0  0  0  0  0
    2.7802    1.7792   -1.5037 H   0  0  0  0  0  0  0  0  0  0  0  0
  1  2  2  0
  1  6  1  0
  2  7  1  0
  3  4  1  0
  3  6  1  0
  4  9  1  0
  5  6  2  0
  5  8  1  0
  7  8  2  0
  7 10  1  0
  8 11  1  0
  1 12  1  0
  2 13  1  0
  3 14  1  0
  3 15  1  0
  4 16  1  0
  4 17  1  0
  5 18  1  0
  9 19  1  0
  9 20  1  0
 10 21  1  0
 11 22  1  0
M  END
