
     RDKit          3D

 34 33  0  0  0  0  0  0  0  0999 V2000
   -1.9524    3.7841   -0.7778 C   0  0  0  0  0  0  0  0  0  0  0  0
   -3.1137   -2.2918   -0.2309 C   0  0  0  0  0  0  0  0  0  0  0  0
   -2.2073    2.4840   -0.0411 C   0  0  0  0  0  0  0  0  0  0  0  0
   -2.6093   -1.2294    0.7252 C   0  0  0  0  0  0  0  0  0  0  0  0
    2.8596   -0.7473   -0.0699 C   0  0  0  0  0  0  0  0  0  0  0  0
    3.5519   -0.9692   -1.4113 C   0  0  0  0  0  0  0  0  0  0  0  0
    1.4293   -0.2537   -0.2583 C   0  0  0  0  0  0  0  0  0  0  0  0
   -1.1095    0.5981    0.8670 C   0  0  0  0  0  0  0  0  0  0  0  0
    4.9215   -1.4316   -1.2220 N   0  0  0  0  0  0  0  0  0  0  0  0
    0.4042   -1.4443    1.9131 O   0  0  0  0  0  0  0  0  0  0  0  0
    1.3297    0.8961    2.2562 O   0  0  0  0  0  0  0  0  0  0  0  0
   -0.9582    1.8320    0.1610 O   0  0  0  0  0  0  0  0  0  0  0  0
   -1.7078   -0.3837    0.0184 O   0  0  0  0  0  0  0  0  0  0  0  0
    0.5658    0.0428    1.2841 P   0  0  0  0  0  5  0  0  0  0  0  0
   -1.4671    3.5928   -1.7406 H   0  0  0  0  0  0  0  0  0  0  0  0
   -2.8878    4.3224   -0.9546 H   0  0  0  0  0  0  0  0  0  0  0  0
   -1.2776    4.4271   -0.2031 H   0  0  0  0  0  0  0  0  0  0  0  0
   -2.2799   -2.8833   -0.6234 H   0  0  0  0  0  0  0  0  0  0  0  0
   -3.6111   -1.8319   -1.0912 H   0  0  0  0  0  0  0  0  0  0  0  0
   -3.8189   -2.9626    0.2677 H   0  0  0  0  0  0  0  0  0  0  0  0
   -2.8725    1.8482   -0.6352 H   0  0  0  0  0  0  0  0  0  0  0  0
   -2.6786    2.6927    0.9256 H   0  0  0  0  0  0  0  0  0  0  0  0
   -2.1085   -1.7030    1.5748 H   0  0  0  0  0  0  0  0  0  0  0  0
   -3.4518   -0.6344    1.0950 H   0  0  0  0  0  0  0  0  0  0  0  0
    3.4172   -0.0154    0.5270 H   0  0  0  0  0  0  0  0  0  0  0  0
    2.8479   -1.6792    0.5079 H   0  0  0  0  0  0  0  0  0  0  0  0
    3.5678   -0.0395   -1.9902 H   0  0  0  0  0  0  0  0  0  0  0  0
    3.0050   -1.7119   -2.0021 H   0  0  0  0  0  0  0  0  0  0  0  0
    1.4409    0.6831   -0.8268 H   0  0  0  0  0  0  0  0  0  0  0  0
    0.8607   -0.9803   -0.8492 H   0  0  0  0  0  0  0  0  0  0  0  0
   -1.6793    0.7609    1.7905 H   0  0  0  0  0  0  0  0  0  0  0  0
    4.9266   -2.2858   -0.6665 H   0  0  0  0  0  0  0  0  0  0  0  0
    5.4443   -0.7418   -0.6823 H   0  0  0  0  0  0  0  0  0  0  0  0
    1.2188   -1.7443    2.3633 H   0  0  0  0  0  0  0  0  0  0  0  0
  1  3  1  0
  2  4  1  0
  3 12  1  0
  4 13  1  0
  5  6  1  0
  5  7  1  0
  6  9  1  0
  7 14  1  0
  8 12  1  0
  8 13  1  0
  8 14  1  0
 10 14  1  0
 11 14  2  0
  1 15  1  0
  1 16  1  0
  1 17  1  0
  2 18  1  0
  2 19  1  0
  2 20  1  0
  3 21  1  0
  3 22  1  0
  4 23  1  0
  4 24  1  0
  5 25  1  0
  5 26  1  0
  6 27  1  0
  6 28  1  0
  7 29  1  0
  7 30  1  0
  8 31  1  0
  9 32  1  0
  9 33  1  0
 10 34  1  0
M  END
