
     RDKit          3D

 17 18  0  0  0  0  0  0  0  0999 V2000
   -1.1555   -1.2054   -0.4714 C   0  0  0  0  0  0  0  0  0  0  0  0
    0.1992   -1.5498   -0.4450 C   0  0  0  0  0  0  0  0  0  0  0  0
   -0.6493    1.0173    0.4127 C   0  0  0  0  0  0  0  0  0  0  0  0
   -3.0063    0.4272   -0.0754 C   0  0  0  0  0  0  0  0  0  0  0  0
    2.8281    0.5278    0.6273 C   0  0  0  0  0  0  0  0  0  0  0  0
   -1.5736    0.0718   -0.0442 C   0  0  0  0  0  0  0  0  0  0  0  0
    1.0909   -0.6014    0.0093 C   0  0  0  0  0  0  0  0  0  0  0  0
    0.6780    0.6442    0.4254 C   0  0  0  0  0  0  0  0  0  0  0  0
   -3.8625   -0.3570   -0.4646 O   0  0  0  0  0  0  0  0  0  0  0  0
    2.4378   -0.7589    0.1043 O   0  0  0  0  0  0  0  0  0  0  0  0
    1.7150    1.4239    0.8335 O   0  0  0  0  0  0  0  0  0  0  0  0
   -1.8890   -1.9289   -0.8240 H   0  0  0  0  0  0  0  0  0  0  0  0
    0.5375   -2.5275   -0.7699 H   0  0  0  0  0  0  0  0  0  0  0  0
   -0.9459    2.0050    0.7461 H   0  0  0  0  0  0  0  0  0  0  0  0
   -3.2711    1.4403    0.2710 H   0  0  0  0  0  0  0  0  0  0  0  0
    3.5281    0.9945   -0.0753 H   0  0  0  0  0  0  0  0  0  0  0  0
    3.3387    0.3770    1.5854 H   0  0  0  0  0  0  0  0  0  0  0  0
  1  2  2  0
  1  6  1  0
  2  7  1  0
  3  6  2  0
  3  8  1  0
  4  6  1  0
  4  9  2  0
  5 10  1  0
  5 11  1  0
  7  8  2  0
  7 10  1  0
  8 11  1  0
  1 12  1  0
  2 13  1  0
  3 14  1  0
  4 15  1  0
  5 16  1  0
  5 17  1  0
M  END
