
     RDKit          3D

 18 18  0  0  0  0  0  0  0  0999 V2000
   -2.8033   -0.7392   -0.2756 C   0  0  0  0  0  0  0  0  0  0  0  0
   -1.8772   -1.7362   -0.5722 C   0  0  0  0  0  0  0  0  0  0  0  0
   -2.3633    0.5426    0.0465 C   0  0  0  0  0  0  0  0  0  0  0  0
   -0.5096   -1.4525   -0.5409 C   0  0  0  0  0  0  0  0  0  0  0  0
   -0.9955    0.8276    0.0788 C   0  0  0  0  0  0  0  0  0  0  0  0
    1.3935    0.0854   -0.2047 C   0  0  0  0  0  0  0  0  0  0  0  0
    1.9880    0.9108    0.6660 C   0  0  0  0  0  0  0  0  0  0  0  0
   -0.0533   -0.1718   -0.2013 C   0  0  0  0  0  0  0  0  0  0  0  0
    3.4184    1.1032    0.6146 N   0  0  0  0  0  4  0  0  0  0  0  0
    3.8826    1.8908    1.4478 O   0  0  0  0  0  1  0  0  0  0  0  0
    4.0783    0.4896   -0.2335 O   0  0  0  0  0  0  0  0  0  0  0  0
   -3.8675   -0.9594   -0.3022 H   0  0  0  0  0  0  0  0  0  0  0  0
   -2.2184   -2.7356   -0.8306 H   0  0  0  0  0  0  0  0  0  0  0  0
   -3.0864    1.3244    0.2664 H   0  0  0  0  0  0  0  0  0  0  0  0
    0.1950   -2.2473   -0.7782 H   0  0  0  0  0  0  0  0  0  0  0  0
   -0.6858    1.8433    0.3118 H   0  0  0  0  0  0  0  0  0  0  0  0
    1.9651   -0.4626   -0.9518 H   0  0  0  0  0  0  0  0  0  0  0  0
    1.5392    1.4871    1.4591 H   0  0  0  0  0  0  0  0  0  0  0  0
  1  2  2  0
  1  3  1  0
  2  4  1  0
  3  5  2  0
  4  8  2  0
  5  8  1  0
  6  7  2  3
  6  8  1  0
  7  9  1  0
  9 10  1  0
  9 11  2  0
  1 12  1  0
  2 13  1  0
  3 14  1  0
  4 15  1  0
  5 16  1  0
  6 17  1  0
  7 18  1  0
M  CHG  2   9   1  10  -1
M  END
