
     RDKit          3D

 22 22  0  0  0  0  0  0  0  0999 V2000
   -3.1606    0.3767   -0.0006 C   0  0  0  0  0  0  0  0  0  0  0  0
    2.9834    1.2330    0.1147 C   0  0  0  0  0  0  0  0  0  0  0  0
    1.6481    1.3170    0.5139 C   0  0  0  0  0  0  0  0  0  0  0  0
    3.3985    0.1810   -0.6994 C   0  0  0  0  0  0  0  0  0  0  0  0
    1.1408   -0.7067   -0.7108 C   0  0  0  0  0  0  0  0  0  0  0  0
   -1.8045   -0.3109   -0.1469 C   0  0  0  0  0  0  0  0  0  0  0  0
    0.7163    0.3525    0.0987 C   0  0  0  0  0  0  0  0  0  0  0  0
    2.4774   -0.7835   -1.1051 C   0  0  0  0  0  0  0  0  0  0  0  0
   -0.7012    0.4985    0.5535 C   0  0  0  0  0  0  0  0  0  0  0  0
    2.9966   -2.0861   -2.1039 Cl  0  0  0  0  0  0  0  0  0  0  0  0
   -1.8569   -1.6591    0.4414 N   0  0  0  0  0  0  0  0  0  0  0  0
   -0.9478    1.2641    1.4870 O   0  0  0  0  0  0  0  0  0  0  0  0
   -3.1218    1.3944   -0.4046 H   0  0  0  0  0  0  0  0  0  0  0  0
   -3.4680    0.4520    1.0488 H   0  0  0  0  0  0  0  0  0  0  0  0
   -3.9391   -0.1713   -0.5425 H   0  0  0  0  0  0  0  0  0  0  0  0
    3.6969    1.9858    0.4414 H   0  0  0  0  0  0  0  0  0  0  0  0
    1.3352    2.1416    1.1533 H   0  0  0  0  0  0  0  0  0  0  0  0
    4.4386    0.1150   -1.0085 H   0  0  0  0  0  0  0  0  0  0  0  0
    0.4547   -1.4877   -1.0251 H   0  0  0  0  0  0  0  0  0  0  0  0
   -1.5776   -0.3794   -1.2161 H   0  0  0  0  0  0  0  0  0  0  0  0
   -2.0489   -1.5660    1.4424 H   0  0  0  0  0  0  0  0  0  0  0  0
   -2.6601   -2.1606    0.0616 H   0  0  0  0  0  0  0  0  0  0  0  0
  1  6  1  0
  2  3  2  0
  2  4  1  0
  3  7  1  0
  4  8  2  0
  5  7  2  0
  5  8  1  0
  6  9  1  0
  6 11  1  0
  7  9  1  0
  8 10  1  0
  9 12  2  0
  1 13  1  0
  1 14  1  0
  1 15  1  0
  2 16  1  0
  3 17  1  0
  4 18  1  0
  5 19  1  0
  6 20  1  0
 11 21  1  0
 11 22  1  0
M  END
