
     RDKit          3D

 24 24  0  0  0  0  0  0  0  0999 V2000
   -3.7437   -0.4618   -1.2126 C   0  0  0  0  0  0  0  0  0  0  0  0
    0.7254    1.7149    0.9181 C   0  0  0  0  0  0  0  0  0  0  0  0
    2.0967    1.9748    0.9957 C   0  0  0  0  0  0  0  0  0  0  0  0
    1.1736   -0.5713    0.2514 C   0  0  0  0  0  0  0  0  0  0  0  0
   -1.7313   -1.1355   -0.0228 C   0  0  0  0  0  0  0  0  0  0  0  0
    0.2527    0.4452    0.5364 C   0  0  0  0  0  0  0  0  0  0  0  0
    2.9933    0.9639    0.6901 C   0  0  0  0  0  0  0  0  0  0  0  0
    2.5351   -0.3043    0.3473 C   0  0  0  0  0  0  0  0  0  0  0  0
   -1.2285    0.2316    0.4605 C   0  0  0  0  0  0  0  0  0  0  0  0
   -3.1997   -1.2275   -0.0968 N   0  0  0  0  0  0  0  0  0  0  0  0
    4.3292    1.2371    0.7060 O   0  0  0  0  0  0  0  0  0  0  0  0
    3.4167   -1.3236    0.1278 O   0  0  0  0  0  0  0  0  0  0  0  0
   -1.9647    1.1618    0.7874 O   0  0  0  0  0  0  0  0  0  0  0  0
   -3.3496   -0.8185   -2.1699 H   0  0  0  0  0  0  0  0  0  0  0  0
   -3.5419    0.6089   -1.1221 H   0  0  0  0  0  0  0  0  0  0  0  0
   -4.8314   -0.5835   -1.2349 H   0  0  0  0  0  0  0  0  0  0  0  0
    0.0221    2.5135    1.1519 H   0  0  0  0  0  0  0  0  0  0  0  0
    2.4528    2.9617    1.2766 H   0  0  0  0  0  0  0  0  0  0  0  0
    0.8660   -1.5741   -0.0240 H   0  0  0  0  0  0  0  0  0  0  0  0
   -1.2921   -1.3724   -0.9979 H   0  0  0  0  0  0  0  0  0  0  0  0
   -1.3975   -1.8808    0.7077 H   0  0  0  0  0  0  0  0  0  0  0  0
   -3.4669   -2.2037   -0.2110 H   0  0  0  0  0  0  0  0  0  0  0  0
    4.7068    0.8027   -0.0808 H   0  0  0  0  0  0  0  0  0  0  0  0
    4.1768   -1.1589    0.7172 H   0  0  0  0  0  0  0  0  0  0  0  0
  1 10  1  0
  2  3  2  0
  2  6  1  0
  3  7  1  0
  4  6  2  0
  4  8  1  0
  5  9  1  0
  5 10  1  0
  6  9  1  0
  7  8  2  0
  7 11  1  0
  8 12  1  0
  9 13  2  0
  1 14  1  0
  1 15  1  0
  1 16  1  0
  2 17  1  0
  3 18  1  0
  4 19  1  0
  5 20  1  0
  5 21  1  0
 10 22  1  0
 11 23  1  0
 12 24  1  0
M  END
