
     RDKit          3D

 23 23  0  0  0  0  0  0  0  0999 V2000
   -3.0805   -0.7426   -0.8063 C   0  0  0  0  0  0  0  0  0  0  0  0
    1.1915    1.4057    0.0474 C   0  0  0  0  0  0  0  0  0  0  0  0
    1.4480   -0.9911   -0.1388 C   0  0  0  0  0  0  0  0  0  0  0  0
    2.4559    1.4949    0.6341 C   0  0  0  0  0  0  0  0  0  0  0  0
    2.7122   -0.9015    0.4480 C   0  0  0  0  0  0  0  0  0  0  0  0
   -0.6968    0.0631   -0.9721 C   0  0  0  0  0  0  0  0  0  0  0  0
   -1.7609   -0.5776   -0.0536 C   0  0  0  0  0  0  0  0  0  0  0  0
    0.6756    0.1616   -0.3433 C   0  0  0  0  0  0  0  0  0  0  0  0
    3.2106    0.3410    0.8321 C   0  0  0  0  0  0  0  0  0  0  0  0
    4.7680    0.4516    1.5550 Cl  0  0  0  0  0  0  0  0  0  0  0  0
   -2.0121    0.2167    1.1552 N   0  0  0  0  0  0  0  0  0  0  0  0
   -3.4771    0.2224   -1.1415 H   0  0  0  0  0  0  0  0  0  0  0  0
   -2.9444   -1.3758   -1.6897 H   0  0  0  0  0  0  0  0  0  0  0  0
   -3.8376   -1.2182   -0.1727 H   0  0  0  0  0  0  0  0  0  0  0  0
    0.6128    2.3147   -0.1023 H   0  0  0  0  0  0  0  0  0  0  0  0
    1.0698   -1.9672   -0.4358 H   0  0  0  0  0  0  0  0  0  0  0  0
    2.8451    2.4646    0.9324 H   0  0  0  0  0  0  0  0  0  0  0  0
    3.3005   -1.8022    0.6016 H   0  0  0  0  0  0  0  0  0  0  0  0
   -0.6034   -0.5250   -1.8949 H   0  0  0  0  0  0  0  0  0  0  0  0
   -1.0300    1.0600   -1.2910 H   0  0  0  0  0  0  0  0  0  0  0  0
   -1.4235   -1.5715    0.2633 H   0  0  0  0  0  0  0  0  0  0  0  0
   -1.1389    0.3124    1.6763 H   0  0  0  0  0  0  0  0  0  0  0  0
   -2.2847    1.1639    0.8965 H   0  0  0  0  0  0  0  0  0  0  0  0
  1  7  1  0
  2  4  2  0
  2  8  1  0
  3  5  1  0
  3  8  2  0
  4  9  1  0
  5  9  2  0
  6  7  1  0
  6  8  1  0
  7 11  1  0
  9 10  1  0
  1 12  1  0
  1 13  1  0
  1 14  1  0
  2 15  1  0
  3 16  1  0
  4 17  1  0
  5 18  1  0
  6 19  1  0
  6 20  1  0
  7 21  1  0
 11 22  1  0
 11 23  1  0
M  END
