
     RDKit          3D

 25 25  0  0  0  0  0  0  0  0999 V2000
    3.6314    0.8677   -0.1394 C   0  0  0  0  0  0  0  0  0  0  0  0
   -0.9313    0.9121   -0.1000 C   0  0  0  0  0  0  0  0  0  0  0  0
   -1.9135   -1.2842    0.0141 C   0  0  0  0  0  0  0  0  0  0  0  0
   -2.1343    1.4710    0.3461 C   0  0  0  0  0  0  0  0  0  0  0  0
   -3.1160   -0.7294    0.4570 C   0  0  0  0  0  0  0  0  0  0  0  0
    1.7010   -0.2434   -1.0975 C   0  0  0  0  0  0  0  0  0  0  0  0
   -0.7978   -0.4742   -0.2724 C   0  0  0  0  0  0  0  0  0  0  0  0
   -3.2171    0.6441    0.6197 C   0  0  0  0  0  0  0  0  0  0  0  0
    0.4686   -1.1374   -0.7806 C   0  0  0  0  0  0  0  0  0  0  0  0
    2.2886    0.3703    0.1036 N   0  0  0  0  0  0  0  0  0  0  0  0
   -4.4058    1.1497    1.0560 O   0  0  0  0  0  0  0  0  0  0  0  0
    0.8626   -2.1459    0.1647 O   0  0  0  0  0  0  0  0  0  0  0  0
    4.3188    0.0577   -0.4036 H   0  0  0  0  0  0  0  0  0  0  0  0
    3.6368    1.6165   -0.9380 H   0  0  0  0  0  0  0  0  0  0  0  0
    4.0124    1.3492    0.7665 H   0  0  0  0  0  0  0  0  0  0  0  0
   -0.0986    1.5830   -0.2970 H   0  0  0  0  0  0  0  0  0  0  0  0
   -1.8412   -2.3643   -0.0992 H   0  0  0  0  0  0  0  0  0  0  0  0
   -2.1999    2.5466    0.4747 H   0  0  0  0  0  0  0  0  0  0  0  0
   -3.9648   -1.3692    0.6787 H   0  0  0  0  0  0  0  0  0  0  0  0
    1.4340    0.5325   -1.8240 H   0  0  0  0  0  0  0  0  0  0  0  0
    2.4549   -0.8915   -1.5632 H   0  0  0  0  0  0  0  0  0  0  0  0
    0.2017   -1.6578   -1.7101 H   0  0  0  0  0  0  0  0  0  0  0  0
    2.2833   -0.3150    0.8631 H   0  0  0  0  0  0  0  0  0  0  0  0
   -4.3097    2.1104    1.1580 H   0  0  0  0  0  0  0  0  0  0  0  0
    1.6360   -2.5984   -0.2089 H   0  0  0  0  0  0  0  0  0  0  0  0
  1 10  1  0
  2  4  2  0
  2  7  1  0
  3  5  1  0
  3  7  2  0
  4  8  1  0
  5  8  2  0
  6  9  1  0
  6 10  1  0
  7  9  1  0
  8 11  1  0
  9 12  1  0
  1 13  1  0
  1 14  1  0
  1 15  1  0
  2 16  1  0
  3 17  1  0
  4 18  1  0
  5 19  1  0
  6 20  1  0
  6 21  1  0
  9 22  1  0
 10 23  1  0
 11 24  1  0
 12 25  1  0
M  END
