
     RDKit          3D

 25 25  0  0  0  0  0  0  0  0999 V2000
   -1.9288   -1.4866    0.7858 C   0  0  0  0  0  0  0  0  0  0  0  0
    2.1762    1.1668    1.4506 C   0  0  0  0  0  0  0  0  0  0  0  0
    0.8717    1.2111    0.9559 C   0  0  0  0  0  0  0  0  0  0  0  0
    3.0963    0.2735    0.9072 C   0  0  0  0  0  0  0  0  0  0  0  0
    1.4092   -0.5345   -0.6299 C   0  0  0  0  0  0  0  0  0  0  0  0
   -2.0351   -0.0135    0.3972 C   0  0  0  0  0  0  0  0  0  0  0  0
    0.4720    0.3599   -0.0884 C   0  0  0  0  0  0  0  0  0  0  0  0
    2.7079   -0.5689   -0.1268 C   0  0  0  0  0  0  0  0  0  0  0  0
   -0.9418    0.4069   -0.6313 C   0  0  0  0  0  0  0  0  0  0  0  0
   -3.3917    0.2434   -0.1341 N   0  0  0  0  0  0  0  0  0  0  0  0
    3.6418   -1.4265   -0.6286 O   0  0  0  0  0  0  0  0  0  0  0  0
   -1.2248    1.7388   -1.0922 O   0  0  0  0  0  0  0  0  0  0  0  0
   -0.9740   -1.6977    1.2780 H   0  0  0  0  0  0  0  0  0  0  0  0
   -2.0098   -2.1392   -0.0906 H   0  0  0  0  0  0  0  0  0  0  0  0
   -2.7236   -1.7643    1.4873 H   0  0  0  0  0  0  0  0  0  0  0  0
    2.4752    1.8284    2.2596 H   0  0  0  0  0  0  0  0  0  0  0  0
    0.1654    1.9181    1.3888 H   0  0  0  0  0  0  0  0  0  0  0  0
    4.1128    0.2339    1.2885 H   0  0  0  0  0  0  0  0  0  0  0  0
    1.1190   -1.1990   -1.4388 H   0  0  0  0  0  0  0  0  0  0  0  0
   -1.9411    0.5978    1.3025 H   0  0  0  0  0  0  0  0  0  0  0  0
   -1.0174   -0.2367   -1.5168 H   0  0  0  0  0  0  0  0  0  0  0  0
   -3.5319   -0.3107   -0.9781 H   0  0  0  0  0  0  0  0  0  0  0  0
   -3.3864    1.2135   -0.4688 H   0  0  0  0  0  0  0  0  0  0  0  0
    3.2346   -1.9603   -1.3299 H   0  0  0  0  0  0  0  0  0  0  0  0
   -0.3758    2.1457   -1.3388 H   0  0  0  0  0  0  0  0  0  0  0  0
  1  6  1  0
  2  3  2  0
  2  4  1  0
  3  7  1  0
  4  8  2  0
  5  7  2  0
  5  8  1  0
  6  9  1  0
  6 10  1  0
  7  9  1  0
  8 11  1  0
  9 12  1  0
  1 13  1  0
  1 14  1  0
  1 15  1  0
  2 16  1  0
  3 17  1  0
  4 18  1  0
  5 19  1  0
  6 20  1  0
  9 21  1  0
 10 22  1  0
 10 23  1  0
 11 24  1  0
 12 25  1  0
M  END
