
     RDKit          3D

 26 26  0  0  0  0  0  0  0  0999 V2000
   -4.0364   -0.2090    0.3039 C   0  0  0  0  0  0  0  0  0  0  0  0
    1.5119   -1.0796    0.9443 C   0  0  0  0  0  0  0  0  0  0  0  0
    2.8663   -0.8821    0.6608 C   0  0  0  0  0  0  0  0  0  0  0  0
    0.9670    1.0038   -0.1657 C   0  0  0  0  0  0  0  0  0  0  0  0
   -1.7551   -0.6030   -0.4588 C   0  0  0  0  0  0  0  0  0  0  0  0
    0.5469   -0.1451    0.5268 C   0  0  0  0  0  0  0  0  0  0  0  0
    3.2562    0.2490   -0.0401 C   0  0  0  0  0  0  0  0  0  0  0  0
    2.3167    1.1984   -0.4272 C   0  0  0  0  0  0  0  0  0  0  0  0
   -0.9219   -0.3741    0.8315 C   0  0  0  0  0  0  0  0  0  0  0  0
   -3.1038   -1.1719   -0.2676 N   0  0  0  0  0  0  0  0  0  0  0  0
    4.5715    0.4011   -0.3697 O   0  0  0  0  0  0  0  0  0  0  0  0
    2.7088    2.3514   -1.0429 O   0  0  0  0  0  0  0  0  0  0  0  0
   -1.4211    0.7438    1.5706 O   0  0  0  0  0  0  0  0  0  0  0  0
   -3.8042    0.0189    1.3475 H   0  0  0  0  0  0  0  0  0  0  0  0
   -5.0448   -0.6344    0.2825 H   0  0  0  0  0  0  0  0  0  0  0  0
   -4.0633    0.7196   -0.2752 H   0  0  0  0  0  0  0  0  0  0  0  0
    1.2151   -1.9757    1.4861 H   0  0  0  0  0  0  0  0  0  0  0  0
    3.6053   -1.6158    0.9693 H   0  0  0  0  0  0  0  0  0  0  0  0
    0.2459    1.7540   -0.4830 H   0  0  0  0  0  0  0  0  0  0  0  0
   -1.8375    0.3288   -1.0325 H   0  0  0  0  0  0  0  0  0  0  0  0
   -1.2157   -1.3119   -1.0995 H   0  0  0  0  0  0  0  0  0  0  0  0
   -1.0224   -1.2510    1.4824 H   0  0  0  0  0  0  0  0  0  0  0  0
   -3.0484   -1.9816    0.3482 H   0  0  0  0  0  0  0  0  0  0  0  0
    4.5802    0.7723   -1.2714 H   0  0  0  0  0  0  0  0  0  0  0  0
    3.5651    2.5931   -0.6444 H   0  0  0  0  0  0  0  0  0  0  0  0
   -0.6822    1.1008    2.0924 H   0  0  0  0  0  0  0  0  0  0  0  0
  1 10  1  0
  2  3  2  0
  2  6  1  0
  3  7  1  0
  4  6  2  0
  4  8  1  0
  5  9  1  0
  5 10  1  0
  6  9  1  0
  7  8  2  0
  7 11  1  0
  8 12  1  0
  9 13  1  0
  1 14  1  0
  1 15  1  0
  1 16  1  0
  2 17  1  0
  3 18  1  0
  4 19  1  0
  5 20  1  0
  5 21  1  0
  9 22  1  0
 10 23  1  0
 11 24  1  0
 12 25  1  0
 13 26  1  0
M  END
