
     RDKit          3D

 26 27  0  0  0  0  0  0  0  0999 V2000
    4.1502    0.7686    0.7702 C   0  0  0  0  0  0  0  0  0  0  0  0
   -1.7700   -0.3165    1.8165 C   0  0  0  0  0  0  0  0  0  0  0  0
   -2.1278    0.5263   -1.7151 C   0  0  0  0  0  0  0  0  0  0  0  0
   -0.9675   -0.4585   -1.7627 C   0  0  0  0  0  0  0  0  0  0  0  0
   -2.6916    0.3534   -0.3196 C   0  0  0  0  0  0  0  0  0  0  0  0
    1.5899    0.5541    0.3533 C   0  0  0  0  0  0  0  0  0  0  0  0
    2.9073    0.0518    0.4108 C   0  0  0  0  0  0  0  0  0  0  0  0
   -0.6170   -0.7449   -0.2942 C   0  0  0  0  0  0  0  0  0  0  0  0
    0.8280   -0.5251   -0.0274 C   0  0  0  0  0  0  0  0  0  0  0  0
    2.9486   -1.2456    0.0831 N   0  0  0  0  0  0  0  0  0  0  0  0
   -1.4772    0.1772    0.4762 N   0  0  0  0  0  0  0  0  0  0  0  0
    1.6408   -1.6048   -0.1918 O   0  0  0  0  0  0  0  0  0  0  0  0
    4.6227    0.3063    1.6429 H   0  0  0  0  0  0  0  0  0  0  0  0
    3.9458    1.8165    1.0123 H   0  0  0  0  0  0  0  0  0  0  0  0
    4.8617    0.7466   -0.0615 H   0  0  0  0  0  0  0  0  0  0  0  0
   -0.8505   -0.4232    2.4019 H   0  0  0  0  0  0  0  0  0  0  0  0
   -2.2824   -1.2853    1.8021 H   0  0  0  0  0  0  0  0  0  0  0  0
   -2.4047    0.3974    2.3530 H   0  0  0  0  0  0  0  0  0  0  0  0
   -2.8698    0.3294   -2.4945 H   0  0  0  0  0  0  0  0  0  0  0  0
   -1.7534    1.5484   -1.8522 H   0  0  0  0  0  0  0  0  0  0  0  0
   -0.1389   -0.0482   -2.3510 H   0  0  0  0  0  0  0  0  0  0  0  0
   -1.2928   -1.3856   -2.2507 H   0  0  0  0  0  0  0  0  0  0  0  0
   -3.3404   -0.5308   -0.2794 H   0  0  0  0  0  0  0  0  0  0  0  0
   -3.2665    1.2301   -0.0058 H   0  0  0  0  0  0  0  0  0  0  0  0
    1.2345    1.5523    0.5602 H   0  0  0  0  0  0  0  0  0  0  0  0
   -0.8788   -1.7898   -0.0766 H   0  0  0  0  0  0  0  0  0  0  0  0
  1  7  1  0
  2 11  1  0
  3  4  1  0
  3  5  1  0
  4  8  1  0
  5 11  1  0
  6  7  1  0
  6  9  2  0
  7 10  2  0
  8  9  1  0
  8 11  1  0
  9 12  1  0
 10 12  1  0
  1 13  1  0
  1 14  1  0
  1 15  1  0
  2 16  1  0
  2 17  1  0
  2 18  1  0
  3 19  1  0
  3 20  1  0
  4 21  1  0
  4 22  1  0
  5 23  1  0
  5 24  1  0
  6 25  1  0
  8 26  1  0
M  END
