
     RDKit          3D

 30 31  0  0  0  0  0  0  0  0999 V2000
   -3.5939   -0.1310    0.3580 C   0  0  0  0  0  0  0  0  0  0  0  0
   -2.6496   -0.5680    1.4715 C   0  0  0  0  0  0  0  0  0  0  0  0
   -2.9070    0.8790   -0.5538 C   0  0  0  0  0  0  0  0  0  0  0  0
   -1.3226   -1.0816    0.9148 C   0  0  0  0  0  0  0  0  0  0  0  0
   -1.5861    0.3304   -1.0844 C   0  0  0  0  0  0  0  0  0  0  0  0
    1.5364   -0.9430    0.2048 C   0  0  0  0  0  0  0  0  0  0  0  0
    3.0722   -0.7581    0.0481 C   0  0  0  0  0  0  0  0  0  0  0  0
    0.6824    0.0595   -0.0955 C   0  0  0  0  0  0  0  0  0  0  0  0
    2.5167    1.6070   -0.7136 C   0  0  0  0  0  0  0  0  0  0  0  0
    3.8667   -1.7866    0.3473 N   0  0  0  0  0  0  0  0  0  0  0  0
    2.8468    2.8020   -1.1129 N   0  0  0  0  0  0  0  0  0  0  0  0
    1.2049    1.2578   -0.5393 N   0  0  0  0  0  0  0  0  0  0  0  0
   -0.7047   -0.0681    0.0356 N   0  0  0  0  0  0  0  0  0  0  0  0
    3.5532    0.5706   -0.4258 N   0  0  0  0  0  4  0  0  0  0  0  0
    4.7926    0.8505   -0.5848 O   0  0  0  0  0  1  0  0  0  0  0  0
   -3.9042   -1.0054   -0.2268 H   0  0  0  0  0  0  0  0  0  0  0  0
   -4.5005    0.3090    0.7877 H   0  0  0  0  0  0  0  0  0  0  0  0
   -3.1246   -1.3486    2.0761 H   0  0  0  0  0  0  0  0  0  0  0  0
   -2.4594    0.2838    2.1369 H   0  0  0  0  0  0  0  0  0  0  0  0
   -3.5675    1.1312   -1.3908 H   0  0  0  0  0  0  0  0  0  0  0  0
   -2.7219    1.8057    0.0038 H   0  0  0  0  0  0  0  0  0  0  0  0
   -1.4741   -2.0135    0.3564 H   0  0  0  0  0  0  0  0  0  0  0  0
   -0.6725   -1.3055    1.7690 H   0  0  0  0  0  0  0  0  0  0  0  0
   -1.1206    1.0968   -1.7141 H   0  0  0  0  0  0  0  0  0  0  0  0
   -1.7659   -0.5401   -1.7278 H   0  0  0  0  0  0  0  0  0  0  0  0
    1.1989   -1.9123    0.5426 H   0  0  0  0  0  0  0  0  0  0  0  0
    4.8720   -1.6554    0.2452 H   0  0  0  0  0  0  0  0  0  0  0  0
    3.5138   -2.6788    0.6686 H   0  0  0  0  0  0  0  0  0  0  0  0
    3.8824    2.8026   -1.1614 H   0  0  0  0  0  0  0  0  0  0  0  0
    0.5361    2.0099   -0.6353 H   0  0  0  0  0  0  0  0  0  0  0  0
  1  2  1  0
  1  3  1  0
  2  4  1  0
  3  5  1  0
  4 13  1  0
  5 13  1  0
  6  7  1  0
  6  8  2  0
  7 10  1  0
  7 14  2  0
  8 12  1  0
  8 13  1  0
  9 11  2  3
  9 12  1  0
  9 14  1  0
 14 15  1  0
  1 16  1  0
  1 17  1  0
  2 18  1  0
  2 19  1  0
  3 20  1  0
  3 21  1  0
  4 22  1  0
  4 23  1  0
  5 24  1  0
  5 25  1  0
  6 26  1  0
 10 27  1  0
 10 28  1  0
 11 29  1  0
 12 30  1  0
M  CHG  2  14   1  15  -1
M  END
