
     RDKit          3D

 25 25  0  0  0  0  0  0  0  0999 V2000
   -1.5935   -1.4850   -0.8501 C   0  0  0  0  0  0  0  0  0  0  0  0
   -3.6802    0.0792    0.6046 C   0  0  0  0  0  0  0  0  0  0  0  0
    3.4525    1.3927   -0.1533 C   0  0  0  0  0  0  0  0  0  0  0  0
    2.1302    1.4390   -0.6033 C   0  0  0  0  0  0  0  0  0  0  0  0
    3.8601    0.3596    0.6859 C   0  0  0  0  0  0  0  0  0  0  0  0
    1.6237   -0.5824    0.6226 C   0  0  0  0  0  0  0  0  0  0  0  0
   -1.3265   -0.2160   -0.0406 C   0  0  0  0  0  0  0  0  0  0  0  0
    1.2048    0.4565   -0.2127 C   0  0  0  0  0  0  0  0  0  0  0  0
    2.9443   -0.6162    1.0625 C   0  0  0  0  0  0  0  0  0  0  0  0
   -0.1911    0.5607   -0.7346 C   0  0  0  0  0  0  0  0  0  0  0  0
    3.3407   -1.6151    1.8620 F   0  0  0  0  0  0  0  0  0  0  0  0
   -2.4875    0.6908    0.0465 N   0  0  0  0  0  0  0  0  0  0  0  0
   -0.4004    1.2582   -1.7307 O   0  0  0  0  0  0  0  0  0  0  0  0
   -1.9958   -1.2488   -1.8420 H   0  0  0  0  0  0  0  0  0  0  0  0
   -2.3029   -2.1445   -0.3403 H   0  0  0  0  0  0  0  0  0  0  0  0
   -0.6699   -2.0538   -1.0043 H   0  0  0  0  0  0  0  0  0  0  0  0
   -4.4435    0.8491    0.7554 H   0  0  0  0  0  0  0  0  0  0  0  0
   -4.1055   -0.6760   -0.0629 H   0  0  0  0  0  0  0  0  0  0  0  0
   -3.4765   -0.3745    1.5798 H   0  0  0  0  0  0  0  0  0  0  0  0
    4.1585    2.1607   -0.4600 H   0  0  0  0  0  0  0  0  0  0  0  0
    1.8206    2.2504   -1.2614 H   0  0  0  0  0  0  0  0  0  0  0  0
    4.8832    0.3056    1.0448 H   0  0  0  0  0  0  0  0  0  0  0  0
    0.9656   -1.3834    0.9381 H   0  0  0  0  0  0  0  0  0  0  0  0
   -1.0317   -0.4701    0.9817 H   0  0  0  0  0  0  0  0  0  0  0  0
   -2.6795    1.0634   -0.8878 H   0  0  0  0  0  0  0  0  0  0  0  0
  1  7  1  0
  2 12  1  0
  3  4  2  0
  3  5  1  0
  4  8  1  0
  5  9  2  0
  6  8  2  0
  6  9  1  0
  7 10  1  0
  7 12  1  0
  8 10  1  0
  9 11  1  0
 10 13  2  0
  1 14  1  0
  1 15  1  0
  1 16  1  0
  2 17  1  0
  2 18  1  0
  2 19  1  0
  3 20  1  0
  4 21  1  0
  5 22  1  0
  6 23  1  0
  7 24  1  0
 12 25  1  0
M  END
