
     RDKit          3D

 19 19  0  0  0  0  0  0  0  0999 V2000
    3.1693    0.4669   -0.0212 C   0  0  0  0  0  0  0  0  0  0  0  0
    2.7638   -0.8054    0.3749 C   0  0  0  0  0  0  0  0  0  0  0  0
    2.2231    1.3922   -0.4562 C   0  0  0  0  0  0  0  0  0  0  0  0
    1.4102   -1.1504    0.3409 C   0  0  0  0  0  0  0  0  0  0  0  0
    0.8690    1.0476   -0.4897 C   0  0  0  0  0  0  0  0  0  0  0  0
   -0.9619   -0.6400   -0.1234 C   0  0  0  0  0  0  0  0  0  0  0  0
   -1.9949    0.1757    0.1350 C   0  0  0  0  0  0  0  0  0  0  0  0
    0.4464   -0.2236   -0.0784 C   0  0  0  0  0  0  0  0  0  0  0  0
   -3.3654   -0.3464    0.0764 C   0  0  0  0  0  0  0  0  0  0  0  0
   -3.7177   -1.4811   -0.1804 O   0  0  0  0  0  0  0  0  0  0  0  0
   -4.2430    0.6308    0.3540 O   0  0  0  0  0  0  0  0  0  0  0  0
    4.2223    0.7351    0.0034 H   0  0  0  0  0  0  0  0  0  0  0  0
    3.5002   -1.5316    0.7091 H   0  0  0  0  0  0  0  0  0  0  0  0
    2.5386    2.3820   -0.7760 H   0  0  0  0  0  0  0  0  0  0  0  0
    1.1150   -2.1498    0.6534 H   0  0  0  0  0  0  0  0  0  0  0  0
    0.1546    1.7819   -0.8531 H   0  0  0  0  0  0  0  0  0  0  0  0
   -1.1398   -1.6874   -0.3634 H   0  0  0  0  0  0  0  0  0  0  0  0
   -1.8758    1.2173    0.4042 H   0  0  0  0  0  0  0  0  0  0  0  0
   -5.1138    0.1862    0.2903 H   0  0  0  0  0  0  0  0  0  0  0  0
  1  2  2  0
  1  3  1  0
  2  4  1  0
  3  5  2  0
  4  8  2  0
  5  8  1  0
  6  7  2  3
  6  8  1  0
  7  9  1  0
  9 10  2  0
  9 11  1  0
  1 12  1  0
  2 13  1  0
  3 14  1  0
  4 15  1  0
  5 16  1  0
  6 17  1  0
  7 18  1  0
 11 19  1  0
M  END
