
     RDKit          3D

 27 27  0  0  0  0  0  0  0  0999 V2000
   -0.9622   -1.7002    2.6512 C   0  0  0  0  0  0  0  0  0  0  0  0
    1.7771   -0.2422   -3.8194 C   0  0  0  0  0  0  0  0  0  0  0  0
    0.4786    0.1026   -1.3301 C   0  0  0  0  0  0  0  0  0  0  0  0
    1.2903   -1.4603    0.8277 C   0  0  0  0  0  0  0  0  0  0  0  0
   -1.6004    1.8990    1.3428 C   0  0  0  0  0  0  0  0  0  0  0  0
   -0.1654    0.2446   -0.0843 C   0  0  0  0  0  0  0  0  0  0  0  0
    1.9377   -1.5754   -0.4086 C   0  0  0  0  0  0  0  0  0  0  0  0
   -1.2543    1.2645   -0.0046 C   0  0  0  0  0  0  0  0  0  0  0  0
    0.2209   -0.5722    0.9848 C   0  0  0  0  0  0  0  0  0  0  0  0
    1.5310   -0.8031   -1.5061 C   0  0  0  0  0  0  0  0  0  0  0  0
    3.5146   -2.9603   -0.5455 I   0  0  0  0  0  0  0  0  0  0  0  0
   -2.3704    3.1410    1.1268 N   0  0  0  0  0  0  0  0  0  0  0  0
   -1.8369    1.5912   -1.0434 O   0  0  0  0  0  0  0  0  0  0  0  0
   -0.4024   -0.4587    2.1979 O   0  0  0  0  0  0  0  0  0  0  0  0
    2.2078   -0.9814   -2.6832 O   0  0  0  0  0  0  0  0  0  0  0  0
   -1.5457   -2.1930    1.8562 H   0  0  0  0  0  0  0  0  0  0  0  0
   -1.6386   -1.4691    3.4804 H   0  0  0  0  0  0  0  0  0  0  0  0
   -0.1821   -2.3767    3.0357 H   0  0  0  0  0  0  0  0  0  0  0  0
    1.8894    0.8337   -3.6518 H   0  0  0  0  0  0  0  0  0  0  0  0
    2.4210   -0.5167   -4.6610 H   0  0  0  0  0  0  0  0  0  0  0  0
    0.7468   -0.4956   -4.0901 H   0  0  0  0  0  0  0  0  0  0  0  0
    0.1427    0.7301   -2.1520 H   0  0  0  0  0  0  0  0  0  0  0  0
    1.6284   -2.0530    1.6741 H   0  0  0  0  0  0  0  0  0  0  0  0
   -2.2197    1.2096    1.9227 H   0  0  0  0  0  0  0  0  0  0  0  0
   -0.6836    2.1514    1.8831 H   0  0  0  0  0  0  0  0  0  0  0  0
   -3.1343    2.9090    0.4839 H   0  0  0  0  0  0  0  0  0  0  0  0
   -1.7904    3.7811    0.5802 H   0  0  0  0  0  0  0  0  0  0  0  0
  1 14  1  0
  2 15  1  0
  3  6  2  0
  3 10  1  0
  4  7  1  0
  4  9  2  0
  5  8  1  0
  5 12  1  0
  6  8  1  0
  6  9  1  0
  7 10  2  0
  7 11  1  0
  8 13  2  0
  9 14  1  0
 10 15  1  0
  1 16  1  0
  1 17  1  0
  1 18  1  0
  2 19  1  0
  2 20  1  0
  2 21  1  0
  3 22  1  0
  4 23  1  0
  5 24  1  0
  5 25  1  0
 12 26  1  0
 12 27  1  0
M  END
