
     RDKit          3D

 24 24  0  0  0  0  0  0  0  0999 V2000
    4.2343    0.5064    0.1891 C   0  0  0  0  0  0  0  0  0  0  0  0
   -2.9733    2.1691   -0.3891 C   0  0  0  0  0  0  0  0  0  0  0  0
    2.8994   -0.1367   -0.0050 C   0  0  0  0  0  0  0  0  0  0  0  0
    1.7543    0.3652    0.4834 C   0  0  0  0  0  0  0  0  0  0  0  0
    0.2508   -1.6406    0.3603 C   0  0  0  0  0  0  0  0  0  0  0  0
   -1.0203   -2.1951    0.2035 C   0  0  0  0  0  0  0  0  0  0  0  0
   -0.6795    0.5751    0.0839 C   0  0  0  0  0  0  0  0  0  0  0  0
    0.4353   -0.2544    0.2899 C   0  0  0  0  0  0  0  0  0  0  0  0
   -2.1140   -1.3592   -0.0154 C   0  0  0  0  0  0  0  0  0  0  0  0
   -1.9595    0.0322   -0.0769 C   0  0  0  0  0  0  0  0  0  0  0  0
   -3.3623   -1.9017   -0.1695 O   0  0  0  0  0  0  0  0  0  0  0  0
   -3.1019    0.7585   -0.2904 O   0  0  0  0  0  0  0  0  0  0  0  0
    4.1698    1.4264    0.7786 H   0  0  0  0  0  0  0  0  0  0  0  0
    4.6734    0.7535   -0.7823 H   0  0  0  0  0  0  0  0  0  0  0  0
    4.9081   -0.1836    0.7061 H   0  0  0  0  0  0  0  0  0  0  0  0
   -3.9690    2.5838   -0.5739 H   0  0  0  0  0  0  0  0  0  0  0  0
   -2.3347    2.4504   -1.2330 H   0  0  0  0  0  0  0  0  0  0  0  0
   -2.6038    2.5984    0.5480 H   0  0  0  0  0  0  0  0  0  0  0  0
    2.8961   -1.0521   -0.5921 H   0  0  0  0  0  0  0  0  0  0  0  0
    1.7622    1.2968    1.0451 H   0  0  0  0  0  0  0  0  0  0  0  0
    1.0935   -2.3013    0.5494 H   0  0  0  0  0  0  0  0  0  0  0  0
   -1.1378   -3.2725    0.2604 H   0  0  0  0  0  0  0  0  0  0  0  0
   -0.5224    1.6480    0.0440 H   0  0  0  0  0  0  0  0  0  0  0  0
   -3.2989   -2.8666   -0.1037 H   0  0  0  0  0  0  0  0  0  0  0  0
  1  3  1  0
  2 12  1  0
  3  4  2  3
  4  8  1  0
  5  6  2  0
  5  8  1  0
  6  9  1  0
  7  8  2  0
  7 10  1  0
  9 10  2  0
  9 11  1  0
 10 12  1  0
  1 13  1  0
  1 14  1  0
  1 15  1  0
  2 16  1  0
  2 17  1  0
  2 18  1  0
  3 19  1  0
  4 20  1  0
  5 21  1  0
  6 22  1  0
  7 23  1  0
 11 24  1  0
M  END
