
     RDKit          3D

 26 27  0  0  0  0  0  0  0  0999 V2000
    1.9097    1.3982   -0.9277 C   0  0  0  0  0  0  0  0  0  0  0  0
    3.5676   -0.0110    1.1956 C   0  0  0  0  0  0  0  0  0  0  0  0
   -0.3033   -1.5842   -0.6300 C   0  0  0  0  0  0  0  0  0  0  0  0
   -1.6581   -1.9337   -0.6322 C   0  0  0  0  0  0  0  0  0  0  0  0
   -0.8430    0.6697    0.1091 C   0  0  0  0  0  0  0  0  0  0  0  0
   -4.3234    0.1819    0.2423 C   0  0  0  0  0  0  0  0  0  0  0  0
    1.6137    0.0415   -0.2722 C   0  0  0  0  0  0  0  0  0  0  0  0
    0.1226   -0.2797   -0.2740 C   0  0  0  0  0  0  0  0  0  0  0  0
   -2.5678   -0.9683   -0.2652 C   0  0  0  0  0  0  0  0  0  0  0  0
   -2.1713    0.2962    0.0975 C   0  0  0  0  0  0  0  0  0  0  0  0
    2.1178   -0.0543    1.1025 N   0  0  0  0  0  0  0  0  0  0  0  0
   -3.9168   -1.1273   -0.2061 O   0  0  0  0  0  0  0  0  0  0  0  0
   -3.2215    1.0933    0.4330 O   0  0  0  0  0  0  0  0  0  0  0  0
    2.9834    1.5285   -1.0994 H   0  0  0  0  0  0  0  0  0  0  0  0
    1.5702    2.2380   -0.3115 H   0  0  0  0  0  0  0  0  0  0  0  0
    1.4138    1.4774   -1.9020 H   0  0  0  0  0  0  0  0  0  0  0  0
    3.8675   -0.1995    2.2313 H   0  0  0  0  0  0  0  0  0  0  0  0
    3.9694    0.9659    0.9114 H   0  0  0  0  0  0  0  0  0  0  0  0
    4.0315   -0.7856    0.5765 H   0  0  0  0  0  0  0  0  0  0  0  0
    0.4335   -2.3390   -0.8997 H   0  0  0  0  0  0  0  0  0  0  0  0
   -1.9806   -2.9316   -0.9053 H   0  0  0  0  0  0  0  0  0  0  0  0
   -0.5702    1.6725    0.4167 H   0  0  0  0  0  0  0  0  0  0  0  0
   -4.8591    0.0762    1.1928 H   0  0  0  0  0  0  0  0  0  0  0  0
   -5.0071    0.6097   -0.5000 H   0  0  0  0  0  0  0  0  0  0  0  0
    2.1112   -0.7230   -0.8842 H   0  0  0  0  0  0  0  0  0  0  0  0
    1.7101    0.6884    1.6675 H   0  0  0  0  0  0  0  0  0  0  0  0
  1  7  1  0
  2 11  1  0
  3  4  2  0
  3  8  1  0
  4  9  1  0
  5  8  2  0
  5 10  1  0
  6 12  1  0
  6 13  1  0
  7  8  1  0
  7 11  1  0
  9 10  2  0
  9 12  1  0
 10 13  1  0
  1 14  1  0
  1 15  1  0
  1 16  1  0
  2 17  1  0
  2 18  1  0
  2 19  1  0
  3 20  1  0
  4 21  1  0
  5 22  1  0
  6 23  1  0
  6 24  1  0
  7 25  1  0
 11 26  1  0
M  END
