
     RDKit          3D

 27 27  0  0  0  0  0  0  0  0999 V2000
    3.9984   -0.4838   -1.6366 C   0  0  0  0  0  0  0  0  0  0  0  0
   -3.7324   -1.1084   -1.5367 C   0  0  0  0  0  0  0  0  0  0  0  0
   -0.0270    0.9912    1.1798 C   0  0  0  0  0  0  0  0  0  0  0  0
   -1.2254    1.5980    1.5632 C   0  0  0  0  0  0  0  0  0  0  0  0
   -1.2405   -0.3795   -0.4091 C   0  0  0  0  0  0  0  0  0  0  0  0
    2.5642   -0.1794    0.3051 C   0  0  0  0  0  0  0  0  0  0  0  0
   -0.0258    0.0007    0.1897 C   0  0  0  0  0  0  0  0  0  0  0  0
   -2.4212    1.2131    0.9580 C   0  0  0  0  0  0  0  0  0  0  0  0
    1.2303   -0.6818   -0.2634 C   0  0  0  0  0  0  0  0  0  0  0  0
   -2.4448    0.2215   -0.0316 C   0  0  0  0  0  0  0  0  0  0  0  0
    3.7375   -0.8710   -0.2549 N   0  0  0  0  0  0  0  0  0  0  0  0
   -3.5948    1.8093    1.3343 O   0  0  0  0  0  0  0  0  0  0  0  0
    1.1289   -1.6082   -1.0668 O   0  0  0  0  0  0  0  0  0  0  0  0
   -3.6731   -0.0797   -0.5580 O   0  0  0  0  0  0  0  0  0  0  0  0
    3.1775   -0.7517   -2.3072 H   0  0  0  0  0  0  0  0  0  0  0  0
    4.1892    0.5912   -1.7195 H   0  0  0  0  0  0  0  0  0  0  0  0
    4.8903   -1.0082   -1.9941 H   0  0  0  0  0  0  0  0  0  0  0  0
   -4.7793   -1.2292   -1.8315 H   0  0  0  0  0  0  0  0  0  0  0  0
   -3.1649   -0.8341   -2.4320 H   0  0  0  0  0  0  0  0  0  0  0  0
   -3.3901   -2.0645   -1.1272 H   0  0  0  0  0  0  0  0  0  0  0  0
    0.8850    1.3095    1.6754 H   0  0  0  0  0  0  0  0  0  0  0  0
   -1.2103    2.3644    2.3326 H   0  0  0  0  0  0  0  0  0  0  0  0
   -1.2190   -1.1512   -1.1735 H   0  0  0  0  0  0  0  0  0  0  0  0
    2.5537   -0.3801    1.3822 H   0  0  0  0  0  0  0  0  0  0  0  0
    2.6561    0.9005    0.1460 H   0  0  0  0  0  0  0  0  0  0  0  0
    4.5576   -0.6478    0.3065 H   0  0  0  0  0  0  0  0  0  0  0  0
   -3.4204    2.4591    2.0319 H   0  0  0  0  0  0  0  0  0  0  0  0
  1 11  1  0
  2 14  1  0
  3  4  2  0
  3  7  1  0
  4  8  1  0
  5  7  2  0
  5 10  1  0
  6  9  1  0
  6 11  1  0
  7  9  1  0
  8 10  2  0
  8 12  1  0
  9 13  2  0
 10 14  1  0
  1 15  1  0
  1 16  1  0
  1 17  1  0
  2 18  1  0
  2 19  1  0
  2 20  1  0
  3 21  1  0
  4 22  1  0
  5 23  1  0
  6 24  1  0
  6 25  1  0
 11 26  1  0
 12 27  1  0
M  END
