
     RDKit          3D

 27 28  0  0  0  0  0  0  0  0999 V2000
   -3.7316    0.9320   -0.2170 C   0  0  0  0  0  0  0  0  0  0  0  0
   -1.4802    0.0399   -0.9172 C   0  0  0  0  0  0  0  0  0  0  0  0
    0.8621    0.9372   -0.6704 C   0  0  0  0  0  0  0  0  0  0  0  0
    1.8328   -1.5867    0.1609 C   0  0  0  0  0  0  0  0  0  0  0  0
    4.3066    0.9093    0.0399 C   0  0  0  0  0  0  0  0  0  0  0  0
   -2.3167    0.5991    0.2547 C   0  0  0  0  0  0  0  0  0  0  0  0
   -0.0174   -0.1562   -0.5791 C   0  0  0  0  0  0  0  0  0  0  0  0
    0.4849   -1.4071   -0.1574 C   0  0  0  0  0  0  0  0  0  0  0  0
    2.1885    0.7370   -0.3509 C   0  0  0  0  0  0  0  0  0  0  0  0
    2.6591   -0.4897    0.0519 C   0  0  0  0  0  0  0  0  0  0  0  0
   -2.4174   -0.3417    1.3790 N   0  0  0  0  0  0  0  0  0  0  0  0
   -0.3830   -2.4593   -0.0510 O   0  0  0  0  0  0  0  0  0  0  0  0
    3.1657    1.6816   -0.3876 O   0  0  0  0  0  0  0  0  0  0  0  0
    3.9926   -0.4714    0.3198 O   0  0  0  0  0  0  0  0  0  0  0  0
   -3.7058    1.6753   -1.0212 H   0  0  0  0  0  0  0  0  0  0  0  0
   -4.2498    0.0438   -0.5959 H   0  0  0  0  0  0  0  0  0  0  0  0
   -4.3302    1.3508    0.5998 H   0  0  0  0  0  0  0  0  0  0  0  0
   -1.9132   -0.8996   -1.2844 H   0  0  0  0  0  0  0  0  0  0  0  0
   -1.5418    0.7304   -1.7696 H   0  0  0  0  0  0  0  0  0  0  0  0
    0.5178    1.9174   -0.9834 H   0  0  0  0  0  0  0  0  0  0  0  0
    2.2327   -2.5386    0.4868 H   0  0  0  0  0  0  0  0  0  0  0  0
    4.7191    1.3657    0.9471 H   0  0  0  0  0  0  0  0  0  0  0  0
    5.0678    0.9426   -0.7480 H   0  0  0  0  0  0  0  0  0  0  0  0
   -1.8549    1.5210    0.6281 H   0  0  0  0  0  0  0  0  0  0  0  0
   -2.7335   -1.2451    1.0215 H   0  0  0  0  0  0  0  0  0  0  0  0
   -1.4735   -0.5320    1.7211 H   0  0  0  0  0  0  0  0  0  0  0  0
    0.1192   -3.2559    0.1901 H   0  0  0  0  0  0  0  0  0  0  0  0
  1  6  1  0
  2  6  1  0
  2  7  1  0
  3  7  2  0
  3  9  1  0
  4  8  2  0
  4 10  1  0
  5 13  1  0
  5 14  1  0
  6 11  1  0
  7  8  1  0
  8 12  1  0
  9 10  2  0
  9 13  1  0
 10 14  1  0
  1 15  1  0
  1 16  1  0
  1 17  1  0
  2 18  1  0
  2 19  1  0
  3 20  1  0
  4 21  1  0
  5 22  1  0
  5 23  1  0
  6 24  1  0
 11 25  1  0
 11 26  1  0
 12 27  1  0
M  END
