
     RDKit          3D

 27 27  0  0  0  0  0  0  0  0999 V2000
   -2.1020    0.8496    0.9285 C   0  0  0  0  0  0  0  0  0  0  0  0
    1.5832    2.6139    0.6215 C   0  0  0  0  0  0  0  0  0  0  0  0
    2.7150   -1.4192    0.2131 C   0  0  0  0  0  0  0  0  0  0  0  0
    1.8647   -2.2926   -0.4540 C   0  0  0  0  0  0  0  0  0  0  0  0
    2.3511   -0.0844    0.3719 C   0  0  0  0  0  0  0  0  0  0  0  0
   -1.0961    0.0236   -1.3004 C   0  0  0  0  0  0  0  0  0  0  0  0
   -2.2922   -0.0190   -0.3144 C   0  0  0  0  0  0  0  0  0  0  0  0
    0.2400   -0.4973   -0.7886 C   0  0  0  0  0  0  0  0  0  0  0  0
    0.6399   -1.8392   -0.9567 C   0  0  0  0  0  0  0  0  0  0  0  0
    1.1290    0.3846   -0.1266 C   0  0  0  0  0  0  0  0  0  0  0  0
   -0.4006   -3.1313   -1.8901 Br  0  0  0  0  0  0  0  0  0  0  0  0
   -2.6533   -1.3812    0.0914 N   0  0  0  0  0  0  0  0  0  0  0  0
    0.7172    1.6901   -0.0246 O   0  0  0  0  0  0  0  0  0  0  0  0
   -1.3002    0.4759    1.5737 H   0  0  0  0  0  0  0  0  0  0  0  0
   -1.8724    1.8828    0.6486 H   0  0  0  0  0  0  0  0  0  0  0  0
   -3.0194    0.8750    1.5280 H   0  0  0  0  0  0  0  0  0  0  0  0
    1.0963    3.5938    0.6059 H   0  0  0  0  0  0  0  0  0  0  0  0
    2.5333    2.7066    0.0853 H   0  0  0  0  0  0  0  0  0  0  0  0
    1.7419    2.3391    1.6694 H   0  0  0  0  0  0  0  0  0  0  0  0
    3.6663   -1.7752    0.6002 H   0  0  0  0  0  0  0  0  0  0  0  0
    2.1674   -3.3290   -0.5852 H   0  0  0  0  0  0  0  0  0  0  0  0
    3.0483    0.5677    0.8875 H   0  0  0  0  0  0  0  0  0  0  0  0
   -0.9673    1.0584   -1.6460 H   0  0  0  0  0  0  0  0  0  0  0  0
   -1.3721   -0.5086   -2.2188 H   0  0  0  0  0  0  0  0  0  0  0  0
   -3.1565    0.3837   -0.8576 H   0  0  0  0  0  0  0  0  0  0  0  0
   -1.8582   -1.8173    0.5584 H   0  0  0  0  0  0  0  0  0  0  0  0
   -3.4034   -1.3505    0.7798 H   0  0  0  0  0  0  0  0  0  0  0  0
  1  7  1  0
  2 13  1  0
  3  4  2  0
  3  5  1  0
  4  9  1  0
  5 10  2  0
  6  7  1  0
  6  8  1  0
  7 12  1  0
  8  9  2  0
  8 10  1  0
  9 11  1  0
 10 13  1  0
  1 14  1  0
  1 15  1  0
  1 16  1  0
  2 17  1  0
  2 18  1  0
  2 19  1  0
  3 20  1  0
  4 21  1  0
  5 22  1  0
  6 23  1  0
  6 24  1  0
  7 25  1  0
 12 26  1  0
 12 27  1  0
M  END
