
     RDKit          3D

 28 28  0  0  0  0  0  0  0  0999 V2000
   -0.0729    2.8501    0.8134 C   0  0  0  0  0  0  0  0  0  0  0  0
    4.0893    0.0830    0.4876 C   0  0  0  0  0  0  0  0  0  0  0  0
   -2.2780   -0.2103   -1.0593 C   0  0  0  0  0  0  0  0  0  0  0  0
   -3.1498   -0.4649    0.1782 C   0  0  0  0  0  0  0  0  0  0  0  0
   -0.1367   -1.5259   -1.1904 C   0  0  0  0  0  0  0  0  0  0  0  0
    1.3120    0.4856    0.0870 C   0  0  0  0  0  0  0  0  0  0  0  0
   -0.7923   -0.3507   -0.7946 C   0  0  0  0  0  0  0  0  0  0  0  0
    1.2289   -1.6908   -0.9516 C   0  0  0  0  0  0  0  0  0  0  0  0
   -0.0595    0.6608   -0.1489 C   0  0  0  0  0  0  0  0  0  0  0  0
    1.9685   -0.6869   -0.3123 C   0  0  0  0  0  0  0  0  0  0  0  0
    2.0359   -3.3159   -1.5192 Br  0  0  0  0  0  0  0  0  0  0  0  0
   -3.1287   -1.8673    0.6011 N   0  0  0  0  0  0  0  0  0  0  0  0
   -0.7777    1.7717    0.2123 O   0  0  0  0  0  0  0  0  0  0  0  0
    3.3026   -0.9343   -0.1162 O   0  0  0  0  0  0  0  0  0  0  0  0
   -0.7911    3.6536    1.0033 H   0  0  0  0  0  0  0  0  0  0  0  0
    0.6964    3.2440    0.1410 H   0  0  0  0  0  0  0  0  0  0  0  0
    0.3548    2.5525    1.7763 H   0  0  0  0  0  0  0  0  0  0  0  0
    5.1210   -0.2783    0.5386 H   0  0  0  0  0  0  0  0  0  0  0  0
    4.0865    0.9963   -0.1164 H   0  0  0  0  0  0  0  0  0  0  0  0
    3.7564    0.2827    1.5113 H   0  0  0  0  0  0  0  0  0  0  0  0
   -2.5787   -0.8863   -1.8708 H   0  0  0  0  0  0  0  0  0  0  0  0
   -2.4763    0.7992   -1.4417 H   0  0  0  0  0  0  0  0  0  0  0  0
   -2.8367    0.1674    1.0160 H   0  0  0  0  0  0  0  0  0  0  0  0
   -4.1853   -0.1990   -0.0610 H   0  0  0  0  0  0  0  0  0  0  0  0
   -0.7009   -2.3159   -1.6829 H   0  0  0  0  0  0  0  0  0  0  0  0
    1.8705    1.2650    0.5879 H   0  0  0  0  0  0  0  0  0  0  0  0
   -2.1744   -2.1192    0.8612 H   0  0  0  0  0  0  0  0  0  0  0  0
   -3.6838   -1.9663    1.4501 H   0  0  0  0  0  0  0  0  0  0  0  0
  1 13  1  0
  2 14  1  0
  3  4  1  0
  3  7  1  0
  4 12  1  0
  5  7  2  0
  5  8  1  0
  6  9  2  0
  6 10  1  0
  7  9  1  0
  8 10  2  0
  8 11  1  0
  9 13  1  0
 10 14  1  0
  1 15  1  0
  1 16  1  0
  1 17  1  0
  2 18  1  0
  2 19  1  0
  2 20  1  0
  3 21  1  0
  3 22  1  0
  4 23  1  0
  4 24  1  0
  5 25  1  0
  6 26  1  0
 12 27  1  0
 12 28  1  0
M  END
