
     RDKit          3D

 26 26  0  0  0  0  0  0  0  0999 V2000
   -0.7692    2.4739    0.1798 C   0  0  0  0  0  0  0  0  0  0  0  0
    0.1269   -2.4647   -0.8967 C   0  0  0  0  0  0  0  0  0  0  0  0
   -2.4728   -0.7364    1.2439 C   0  0  0  0  0  0  0  0  0  0  0  0
   -2.1426    0.6056    1.0988 C   0  0  0  0  0  0  0  0  0  0  0  0
   -1.7215   -1.7064    0.5912 C   0  0  0  0  0  0  0  0  0  0  0  0
    0.9488    0.4191   -1.1731 C   0  0  0  0  0  0  0  0  0  0  0  0
    2.2992    0.2032   -0.4685 C   0  0  0  0  0  0  0  0  0  0  0  0
   -1.0475    0.9982    0.3119 C   0  0  0  0  0  0  0  0  0  0  0  0
   -0.6275   -1.3519   -0.2161 C   0  0  0  0  0  0  0  0  0  0  0  0
   -0.2649    0.0141   -0.3468 C   0  0  0  0  0  0  0  0  0  0  0  0
    2.4950    1.0758    0.6890 N   0  0  0  0  0  0  0  0  0  0  0  0
    0.2494    2.7118    0.4960 H   0  0  0  0  0  0  0  0  0  0  0  0
   -0.9200    2.7949   -0.8558 H   0  0  0  0  0  0  0  0  0  0  0  0
   -1.4437    3.0678    0.8064 H   0  0  0  0  0  0  0  0  0  0  0  0
    1.0834   -2.6399   -0.3975 H   0  0  0  0  0  0  0  0  0  0  0  0
    0.2947   -2.2401   -1.9538 H   0  0  0  0  0  0  0  0  0  0  0  0
   -0.4377   -3.4034   -0.8669 H   0  0  0  0  0  0  0  0  0  0  0  0
   -3.3207   -1.0255    1.8587 H   0  0  0  0  0  0  0  0  0  0  0  0
   -2.7507    1.3517    1.6061 H   0  0  0  0  0  0  0  0  0  0  0  0
   -2.0007   -2.7512    0.7110 H   0  0  0  0  0  0  0  0  0  0  0  0
    0.8725    1.4633   -1.4964 H   0  0  0  0  0  0  0  0  0  0  0  0
    0.9423   -0.1456   -2.1130 H   0  0  0  0  0  0  0  0  0  0  0  0
    2.4105   -0.8360   -0.1462 H   0  0  0  0  0  0  0  0  0  0  0  0
    3.1033    0.4046   -1.1849 H   0  0  0  0  0  0  0  0  0  0  0  0
    1.7391    0.9064    1.3554 H   0  0  0  0  0  0  0  0  0  0  0  0
    3.3545    0.8108    1.1677 H   0  0  0  0  0  0  0  0  0  0  0  0
  1  8  1  0
  2  9  1  0
  3  4  2  0
  3  5  1  0
  4  8  1  0
  5  9  2  0
  6  7  1  0
  6 10  1  0
  7 11  1  0
  8 10  2  0
  9 10  1  0
  1 12  1  0
  1 13  1  0
  1 14  1  0
  2 15  1  0
  2 16  1  0
  2 17  1  0
  3 18  1  0
  4 19  1  0
  5 20  1  0
  6 21  1  0
  6 22  1  0
  7 23  1  0
  7 24  1  0
 11 25  1  0
 11 26  1  0
M  END
