
     RDKit          3D

 27 27  0  0  0  0  0  0  0  0999 V2000
    3.0454    1.1221   -0.0508 C   0  0  0  0  0  0  0  0  0  0  0  0
    3.0509   -1.2845    0.0303 C   0  0  0  0  0  0  0  0  0  0  0  0
   -3.3134   -1.3204   -0.1908 C   0  0  0  0  0  0  0  0  0  0  0  0
   -4.0080   -0.1348    0.0310 C   0  0  0  0  0  0  0  0  0  0  0  0
   -1.9330   -1.2921   -0.4015 C   0  0  0  0  0  0  0  0  0  0  0  0
   -3.3209    1.0769    0.0452 C   0  0  0  0  0  0  0  0  0  0  0  0
    0.2697   -0.1076   -0.6216 C   0  0  0  0  0  0  0  0  0  0  0  0
    1.0457   -0.0655    0.7079 C   0  0  0  0  0  0  0  0  0  0  0  0
   -1.2251   -0.0771   -0.3973 C   0  0  0  0  0  0  0  0  0  0  0  0
   -1.9422    1.1036   -0.1631 C   0  0  0  0  0  0  0  0  0  0  0  0
    2.5144   -0.0607    0.6186 N   0  0  0  0  0  0  0  0  0  0  0  0
   -1.3617    2.3393   -0.1201 O   0  0  0  0  0  0  0  0  0  0  0  0
    2.6559    2.0367    0.4099 H   0  0  0  0  0  0  0  0  0  0  0  0
    4.1357    1.1602    0.0527 H   0  0  0  0  0  0  0  0  0  0  0  0
    2.8078    1.1443   -1.1197 H   0  0  0  0  0  0  0  0  0  0  0  0
    4.1420   -1.3077    0.1307 H   0  0  0  0  0  0  0  0  0  0  0  0
    2.6706   -2.1675    0.5556 H   0  0  0  0  0  0  0  0  0  0  0  0
    2.8084   -1.3822   -1.0332 H   0  0  0  0  0  0  0  0  0  0  0  0
   -3.8453   -2.2683   -0.1993 H   0  0  0  0  0  0  0  0  0  0  0  0
   -5.0819   -0.1522    0.1951 H   0  0  0  0  0  0  0  0  0  0  0  0
   -1.4106   -2.2318   -0.5700 H   0  0  0  0  0  0  0  0  0  0  0  0
   -3.8586    2.0045    0.2219 H   0  0  0  0  0  0  0  0  0  0  0  0
    0.5275   -1.0155   -1.1808 H   0  0  0  0  0  0  0  0  0  0  0  0
    0.5492    0.7255   -1.2762 H   0  0  0  0  0  0  0  0  0  0  0  0
    0.7406   -0.9188    1.3289 H   0  0  0  0  0  0  0  0  0  0  0  0
    0.7390    0.8175    1.2841 H   0  0  0  0  0  0  0  0  0  0  0  0
   -0.4022    2.2560   -0.2200 H   0  0  0  0  0  0  0  0  0  0  0  0
  1 11  1  0
  2 11  1  0
  3  4  2  0
  3  5  1  0
  4  6  1  0
  5  9  2  0
  6 10  2  0
  7  8  1  0
  7  9  1  0
  8 11  1  0
  9 10  1  0
 10 12  1  0
  1 13  1  0
  1 14  1  0
  1 15  1  0
  2 16  1  0
  2 17  1  0
  2 18  1  0
  3 19  1  0
  4 20  1  0
  5 21  1  0
  6 22  1  0
  7 23  1  0
  7 24  1  0
  8 25  1  0
  8 26  1  0
 12 27  1  0
M  END
