
     RDKit          3D

 27 27  0  0  0  0  0  0  0  0999 V2000
    3.9666   -0.2726   -0.3424 C   0  0  0  0  0  0  0  0  0  0  0  0
   -2.4406    1.9390   -1.4791 C   0  0  0  0  0  0  0  0  0  0  0  0
   -1.7407   -1.6346    2.0092 C   0  0  0  0  0  0  0  0  0  0  0  0
   -2.8764   -1.1401    1.3763 C   0  0  0  0  0  0  0  0  0  0  0  0
   -0.4877   -1.1171    1.6874 C   0  0  0  0  0  0  0  0  0  0  0  0
   -2.7626   -0.1284    0.4192 C   0  0  0  0  0  0  0  0  0  0  0  0
    1.0238    0.4295    0.3975 C   0  0  0  0  0  0  0  0  0  0  0  0
    1.5908   -0.2317   -0.8673 C   0  0  0  0  0  0  0  0  0  0  0  0
   -0.3588   -0.0953    0.7312 C   0  0  0  0  0  0  0  0  0  0  0  0
   -1.5098    0.3991    0.0886 C   0  0  0  0  0  0  0  0  0  0  0  0
    2.9340    0.2437   -1.2313 N   0  0  0  0  0  0  0  0  0  0  0  0
   -1.2990    1.3833   -0.8409 O   0  0  0  0  0  0  0  0  0  0  0  0
    3.8566    0.1111    0.6758 H   0  0  0  0  0  0  0  0  0  0  0  0
    3.9674   -1.3671   -0.3176 H   0  0  0  0  0  0  0  0  0  0  0  0
    4.9476    0.0530   -0.7029 H   0  0  0  0  0  0  0  0  0  0  0  0
   -2.0936    2.7169   -2.1660 H   0  0  0  0  0  0  0  0  0  0  0  0
   -3.1097    2.4116   -0.7526 H   0  0  0  0  0  0  0  0  0  0  0  0
   -2.9675    1.1840   -2.0718 H   0  0  0  0  0  0  0  0  0  0  0  0
   -1.8297   -2.4224    2.7525 H   0  0  0  0  0  0  0  0  0  0  0  0
   -3.8549   -1.5423    1.6257 H   0  0  0  0  0  0  0  0  0  0  0  0
    0.3929   -1.5138    2.1879 H   0  0  0  0  0  0  0  0  0  0  0  0
   -3.6737    0.2244   -0.0518 H   0  0  0  0  0  0  0  0  0  0  0  0
    0.9874    1.5198    0.2780 H   0  0  0  0  0  0  0  0  0  0  0  0
    1.6829    0.2511    1.2556 H   0  0  0  0  0  0  0  0  0  0  0  0
    0.9278   -0.0060   -1.7115 H   0  0  0  0  0  0  0  0  0  0  0  0
    1.5901   -1.3250   -0.7693 H   0  0  0  0  0  0  0  0  0  0  0  0
    3.1367   -0.0701   -2.1806 H   0  0  0  0  0  0  0  0  0  0  0  0
  1 11  1  0
  2 12  1  0
  3  4  2  0
  3  5  1  0
  4  6  1  0
  5  9  2  0
  6 10  2  0
  7  8  1  0
  7  9  1  0
  8 11  1  0
  9 10  1  0
 10 12  1  0
  1 13  1  0
  1 14  1  0
  1 15  1  0
  2 16  1  0
  2 17  1  0
  2 18  1  0
  3 19  1  0
  4 20  1  0
  5 21  1  0
  6 22  1  0
  7 23  1  0
  7 24  1  0
  8 25  1  0
  8 26  1  0
 11 27  1  0
M  END
