
     RDKit          3D

 27 28  0  0  0  0  0  0  0  0999 V2000
   -3.8834   -0.3599   -0.3819 C   0  0  0  0  0  0  0  0  0  0  0  0
    0.4745    0.2728   -1.7366 C   0  0  0  0  0  0  0  0  0  0  0  0
    1.7746    0.7906   -1.7675 C   0  0  0  0  0  0  0  0  0  0  0  0
    3.1574    0.0142    1.4748 C   0  0  0  0  0  0  0  0  0  0  0  0
    4.2253    0.6624    0.8974 C   0  0  0  0  0  0  0  0  0  0  0  0
   -1.4363   -0.9356   -0.6060 C   0  0  0  0  0  0  0  0  0  0  0  0
    0.7888   -0.5280    0.5302 C   0  0  0  0  0  0  0  0  0  0  0  0
   -2.4651    0.0023    0.0630 C   0  0  0  0  0  0  0  0  0  0  0  0
   -0.0258   -0.3877   -0.6070 C   0  0  0  0  0  0  0  0  0  0  0  0
    2.1008   -0.0149    0.5228 C   0  0  0  0  0  0  0  0  0  0  0  0
    2.5629    0.6298   -0.6236 C   0  0  0  0  0  0  0  0  0  0  0  0
   -2.3971   -0.0726    1.5286 N   0  0  0  0  0  0  0  0  0  0  0  0
    3.8553    1.0302   -0.3692 N   0  0  0  0  0  0  0  0  0  0  0  0
   -4.1383   -1.3912   -0.1127 H   0  0  0  0  0  0  0  0  0  0  0  0
   -4.6231    0.3042    0.0792 H   0  0  0  0  0  0  0  0  0  0  0  0
   -3.9848   -0.2604   -1.4681 H   0  0  0  0  0  0  0  0  0  0  0  0
   -0.1524    0.3923   -2.6181 H   0  0  0  0  0  0  0  0  0  0  0  0
    2.1495    1.2986   -2.6496 H   0  0  0  0  0  0  0  0  0  0  0  0
    3.1327   -0.3966    2.4753 H   0  0  0  0  0  0  0  0  0  0  0  0
    5.2108    0.8942    1.2775 H   0  0  0  0  0  0  0  0  0  0  0  0
   -1.7316   -1.1215   -1.6475 H   0  0  0  0  0  0  0  0  0  0  0  0
   -1.4419   -1.9245   -0.1277 H   0  0  0  0  0  0  0  0  0  0  0  0
    0.4081   -1.0218    1.4201 H   0  0  0  0  0  0  0  0  0  0  0  0
   -2.2655    1.0385   -0.2359 H   0  0  0  0  0  0  0  0  0  0  0  0
   -2.6553   -1.0071    1.8416 H   0  0  0  0  0  0  0  0  0  0  0  0
   -3.0800    0.5651    1.9354 H   0  0  0  0  0  0  0  0  0  0  0  0
    4.4399    1.5265   -1.0269 H   0  0  0  0  0  0  0  0  0  0  0  0
  1  8  1  0
  2  3  2  0
  2  9  1  0
  3 11  1  0
  4  5  2  0
  4 10  1  0
  5 13  1  0
  6  8  1  0
  6  9  1  0
  7  9  2  0
  7 10  1  0
  8 12  1  0
 10 11  2  0
 11 13  1  0
  1 14  1  0
  1 15  1  0
  1 16  1  0
  2 17  1  0
  3 18  1  0
  4 19  1  0
  5 20  1  0
  6 21  1  0
  6 22  1  0
  7 23  1  0
  8 24  1  0
 12 25  1  0
 12 26  1  0
 13 27  1  0
M  END
