
     RDKit          3D

 29 29  0  0  0  0  0  0  0  0999 V2000
   -3.2964   -2.7538    0.0836 C   0  0  0  0  0  0  0  0  0  0  0  0
   -1.3510    3.2663    0.9141 C   0  0  0  0  0  0  0  0  0  0  0  0
   -0.0574   -1.3196   -0.6997 C   0  0  0  0  0  0  0  0  0  0  0  0
    0.0377    1.0194   -0.1115 C   0  0  0  0  0  0  0  0  0  0  0  0
   -1.9803   -0.2518    0.2792 C   0  0  0  0  0  0  0  0  0  0  0  0
    3.0883   -0.7543   -0.1314 C   0  0  0  0  0  0  0  0  0  0  0  0
    0.6679   -0.1187   -0.6410 C   0  0  0  0  0  0  0  0  0  0  0  0
   -1.3755   -1.3935   -0.2433 C   0  0  0  0  0  0  0  0  0  0  0  0
   -1.2805    0.9577    0.3451 C   0  0  0  0  0  0  0  0  0  0  0  0
    2.1032   -0.0909   -1.1285 C   0  0  0  0  0  0  0  0  0  0  0  0
    3.2604    0.0091    1.1157 N   0  0  0  0  0  0  0  0  0  0  0  0
    2.5277    1.2562   -1.3782 O   0  0  0  0  0  0  0  0  0  0  0  0
   -1.9513   -2.6289   -0.3622 O   0  0  0  0  0  0  0  0  0  0  0  0
   -1.9937    1.9978    0.8788 O   0  0  0  0  0  0  0  0  0  0  0  0
   -3.3774   -2.5484    1.1561 H   0  0  0  0  0  0  0  0  0  0  0  0
   -3.6077   -3.7899   -0.0809 H   0  0  0  0  0  0  0  0  0  0  0  0
   -3.9659   -2.1093   -0.4954 H   0  0  0  0  0  0  0  0  0  0  0  0
   -2.0575    3.9866    1.3378 H   0  0  0  0  0  0  0  0  0  0  0  0
   -1.0925    3.6075   -0.0938 H   0  0  0  0  0  0  0  0  0  0  0  0
   -0.4700    3.2435    1.5639 H   0  0  0  0  0  0  0  0  0  0  0  0
    0.4040   -2.2179   -1.1058 H   0  0  0  0  0  0  0  0  0  0  0  0
    0.6004    1.9470   -0.0682 H   0  0  0  0  0  0  0  0  0  0  0  0
   -3.0017   -0.2653    0.6446 H   0  0  0  0  0  0  0  0  0  0  0  0
    2.7811   -1.7776    0.1092 H   0  0  0  0  0  0  0  0  0  0  0  0
    4.0753   -0.8111   -0.6045 H   0  0  0  0  0  0  0  0  0  0  0  0
    2.1512   -0.6161   -2.0904 H   0  0  0  0  0  0  0  0  0  0  0  0
    2.3859   -0.0465    1.6430 H   0  0  0  0  0  0  0  0  0  0  0  0
    3.3323    0.9987    0.8653 H   0  0  0  0  0  0  0  0  0  0  0  0
    3.4434    1.2035   -1.7015 H   0  0  0  0  0  0  0  0  0  0  0  0
  1 13  1  0
  2 14  1  0
  3  7  2  0
  3  8  1  0
  4  7  1  0
  4  9  2  0
  5  8  2  0
  5  9  1  0
  6 10  1  0
  6 11  1  0
  7 10  1  0
  8 13  1  0
  9 14  1  0
 10 12  1  0
  1 15  1  0
  1 16  1  0
  1 17  1  0
  2 18  1  0
  2 19  1  0
  2 20  1  0
  3 21  1  0
  4 22  1  0
  5 23  1  0
  6 24  1  0
  6 25  1  0
 10 26  1  0
 11 27  1  0
 11 28  1  0
 12 29  1  0
M  END
