
     RDKit          3D

 29 30  0  0  0  0  0  0  0  0999 V2000
   -4.0153   -1.5441   -0.9702 C   0  0  0  0  0  0  0  0  0  0  0  0
   -1.8670    2.6369    1.7982 C   0  0  0  0  0  0  0  0  0  0  0  0
    0.1737   -1.3555   -0.4772 C   0  0  0  0  0  0  0  0  0  0  0  0
   -1.2103   -1.4456   -0.6571 C   0  0  0  0  0  0  0  0  0  0  0  0
   -0.1085    0.6912    0.7426 C   0  0  0  0  0  0  0  0  0  0  0  0
    3.0019    1.0485    0.0199 C   0  0  0  0  0  0  0  0  0  0  0  0
    0.7552   -0.2846    0.2146 C   0  0  0  0  0  0  0  0  0  0  0  0
    2.2506   -0.2020    0.4148 C   0  0  0  0  0  0  0  0  0  0  0  0
    3.1763   -0.2021   -0.7831 C   0  0  0  0  0  0  0  0  0  0  0  0
   -2.0544   -0.4619   -0.1381 C   0  0  0  0  0  0  0  0  0  0  0  0
   -1.4982    0.6180    0.5722 C   0  0  0  0  0  0  0  0  0  0  0  0
    4.4486   -0.9179   -0.7013 N   0  0  0  0  0  0  0  0  0  0  0  0
   -3.4213   -0.4642   -0.2651 O   0  0  0  0  0  0  0  0  0  0  0  0
   -2.3894    1.5437    1.0579 O   0  0  0  0  0  0  0  0  0  0  0  0
   -3.8203   -2.4983   -0.4696 H   0  0  0  0  0  0  0  0  0  0  0  0
   -5.0982   -1.3865   -0.9730 H   0  0  0  0  0  0  0  0  0  0  0  0
   -3.6807   -1.5674   -2.0125 H   0  0  0  0  0  0  0  0  0  0  0  0
   -2.7090    3.2622    2.1105 H   0  0  0  0  0  0  0  0  0  0  0  0
   -1.3555    2.2934    2.7034 H   0  0  0  0  0  0  0  0  0  0  0  0
   -1.2074    3.2541    1.1793 H   0  0  0  0  0  0  0  0  0  0  0  0
    0.8105   -2.1388   -0.8839 H   0  0  0  0  0  0  0  0  0  0  0  0
   -1.5941   -2.2990   -1.2052 H   0  0  0  0  0  0  0  0  0  0  0  0
    0.3432    1.5109    1.2927 H   0  0  0  0  0  0  0  0  0  0  0  0
    3.8137    1.3678    0.6634 H   0  0  0  0  0  0  0  0  0  0  0  0
    2.4603    1.8661   -0.4413 H   0  0  0  0  0  0  0  0  0  0  0  0
    2.6183   -0.7082    1.3060 H   0  0  0  0  0  0  0  0  0  0  0  0
    2.7186   -0.2037   -1.7706 H   0  0  0  0  0  0  0  0  0  0  0  0
    4.3322   -1.8927   -0.9765 H   0  0  0  0  0  0  0  0  0  0  0  0
    5.1266   -0.5203   -1.3510 H   0  0  0  0  0  0  0  0  0  0  0  0
  1 13  1  0
  2 14  1  0
  3  4  2  0
  3  7  1  0
  4 10  1  0
  5  7  2  0
  5 11  1  0
  6  8  1  0
  6  9  1  0
  7  8  1  0
  8  9  1  0
  9 12  1  0
 10 11  2  0
 10 13  1  0
 11 14  1  0
  1 15  1  0
  1 16  1  0
  1 17  1  0
  2 18  1  0
  2 19  1  0
  2 20  1  0
  3 21  1  0
  4 22  1  0
  5 23  1  0
  6 24  1  0
  6 25  1  0
  8 26  1  0
  9 27  1  0
 12 28  1  0
 12 29  1  0
M  END
