
     RDKit          3D

 30 31  0  0  0  0  0  0  0  0999 V2000
   -4.5933   -0.3890   -0.0834 C   0  0  0  0  0  0  0  0  0  0  0  0
    3.1810   -2.4707    0.3346 C   0  0  0  0  0  0  0  0  0  0  0  0
   -1.5514   -0.5078   -0.6187 C   0  0  0  0  0  0  0  0  0  0  0  0
   -2.3031   -0.5577    0.7194 C   0  0  0  0  0  0  0  0  0  0  0  0
    0.9298   -0.8160   -0.1818 C   0  0  0  0  0  0  0  0  0  0  0  0
    0.0611    1.4351   -0.5347 C   0  0  0  0  0  0  0  0  0  0  0  0
    3.1393    3.0858   -0.1557 C   0  0  0  0  0  0  0  0  0  0  0  0
   -0.1566    0.0526   -0.4516 C   0  0  0  0  0  0  0  0  0  0  0  0
    2.2279   -0.3205   -0.0038 C   0  0  0  0  0  0  0  0  0  0  0  0
    1.3463    1.8989   -0.3554 C   0  0  0  0  0  0  0  0  0  0  0  0
    2.3991    1.0505   -0.0981 C   0  0  0  0  0  0  0  0  0  0  0  0
   -3.6180   -1.2052    0.6294 N   0  0  0  0  0  0  0  0  0  0  0  0
    3.3437   -1.0613    0.2584 O   0  0  0  0  0  0  0  0  0  0  0  0
    1.7244    3.2049   -0.4052 O   0  0  0  0  0  0  0  0  0  0  0  0
    3.5743    1.7289    0.0445 O   0  0  0  0  0  0  0  0  0  0  0  0
   -4.7052    0.5986    0.3757 H   0  0  0  0  0  0  0  0  0  0  0  0
   -5.5691   -0.8842   -0.0515 H   0  0  0  0  0  0  0  0  0  0  0  0
   -4.3294   -0.2694   -1.1380 H   0  0  0  0  0  0  0  0  0  0  0  0
    2.5163   -2.7471    1.1597 H   0  0  0  0  0  0  0  0  0  0  0  0
    4.1624   -2.9105    0.5367 H   0  0  0  0  0  0  0  0  0  0  0  0
    2.8227   -2.8794   -0.6161 H   0  0  0  0  0  0  0  0  0  0  0  0
   -1.4880   -1.5130   -1.0552 H   0  0  0  0  0  0  0  0  0  0  0  0
   -2.0915    0.1060   -1.3495 H   0  0  0  0  0  0  0  0  0  0  0  0
   -1.7055   -1.1361    1.4354 H   0  0  0  0  0  0  0  0  0  0  0  0
   -2.4009    0.4472    1.1497 H   0  0  0  0  0  0  0  0  0  0  0  0
    0.7267   -1.8812   -0.1156 H   0  0  0  0  0  0  0  0  0  0  0  0
   -0.7487    2.1289   -0.7341 H   0  0  0  0  0  0  0  0  0  0  0  0
    3.3871    3.6696    0.7382 H   0  0  0  0  0  0  0  0  0  0  0  0
    3.6820    3.5065   -1.0100 H   0  0  0  0  0  0  0  0  0  0  0  0
   -3.9635   -1.3642    1.5767 H   0  0  0  0  0  0  0  0  0  0  0  0
  1 12  1  0
  2 13  1  0
  3  4  1  0
  3  8  1  0
  4 12  1  0
  5  8  2  0
  5  9  1  0
  6  8  1  0
  6 10  2  0
  7 14  1  0
  7 15  1  0
  9 11  2  0
  9 13  1  0
 10 11  1  0
 10 14  1  0
 11 15  1  0
  1 16  1  0
  1 17  1  0
  1 18  1  0
  2 19  1  0
  2 20  1  0
  2 21  1  0
  3 22  1  0
  3 23  1  0
  4 24  1  0
  4 25  1  0
  5 26  1  0
  6 27  1  0
  7 28  1  0
  7 29  1  0
 12 30  1  0
M  END
