
     RDKit          3D

 30 31  0  0  0  0  0  0  0  0999 V2000
   -4.5436   -0.1135    0.0156 C   0  0  0  0  0  0  0  0  0  0  0  0
    1.6657    2.4908    0.9031 C   0  0  0  0  0  0  0  0  0  0  0  0
    0.1295   -1.9345   -0.3106 C   0  0  0  0  0  0  0  0  0  0  0  0
    1.4017   -2.3305   -0.7184 C   0  0  0  0  0  0  0  0  0  0  0  0
   -1.5043   -0.2570    0.6266 C   0  0  0  0  0  0  0  0  0  0  0  0
   -2.2401    0.4991   -0.4906 C   0  0  0  0  0  0  0  0  0  0  0  0
    4.3252   -0.3967   -0.6174 C   0  0  0  0  0  0  0  0  0  0  0  0
   -0.0958   -0.6394    0.2139 C   0  0  0  0  0  0  0  0  0  0  0  0
    2.4245   -1.4165   -0.5959 C   0  0  0  0  0  0  0  0  0  0  0  0
    0.9729    0.2807    0.3194 C   0  0  0  0  0  0  0  0  0  0  0  0
    2.2276   -0.1455   -0.0939 C   0  0  0  0  0  0  0  0  0  0  0  0
   -3.5804    0.9683   -0.1178 N   0  0  0  0  0  0  0  0  0  0  0  0
    0.6438    1.5070    0.8261 O   0  0  0  0  0  0  0  0  0  0  0  0
    3.7172   -1.6556   -0.9498 O   0  0  0  0  0  0  0  0  0  0  0  0
    3.3955    0.5598   -0.0782 O   0  0  0  0  0  0  0  0  0  0  0  0
   -5.5362    0.3086    0.2018 H   0  0  0  0  0  0  0  0  0  0  0  0
   -4.3056   -0.7753    0.8534 H   0  0  0  0  0  0  0  0  0  0  0  0
   -4.6079   -0.7054   -0.9031 H   0  0  0  0  0  0  0  0  0  0  0  0
    1.2135    3.4062    1.2973 H   0  0  0  0  0  0  0  0  0  0  0  0
    2.4528    2.1899    1.6016 H   0  0  0  0  0  0  0  0  0  0  0  0
    2.0670    2.7266   -0.0877 H   0  0  0  0  0  0  0  0  0  0  0  0
   -0.6962   -2.6379   -0.4014 H   0  0  0  0  0  0  0  0  0  0  0  0
    1.5824   -3.3215   -1.1191 H   0  0  0  0  0  0  0  0  0  0  0  0
   -1.4697    0.3460    1.5427 H   0  0  0  0  0  0  0  0  0  0  0  0
   -2.0522   -1.1678    0.8976 H   0  0  0  0  0  0  0  0  0  0  0  0
   -1.6579    1.3848   -0.7723 H   0  0  0  0  0  0  0  0  0  0  0  0
   -2.2981   -0.1163   -1.3975 H   0  0  0  0  0  0  0  0  0  0  0  0
    5.1163   -0.5716    0.1207 H   0  0  0  0  0  0  0  0  0  0  0  0
    4.7779    0.0255   -1.5219 H   0  0  0  0  0  0  0  0  0  0  0  0
   -3.5254    1.4916    0.7558 H   0  0  0  0  0  0  0  0  0  0  0  0
  1 12  1  0
  2 13  1  0
  3  4  2  0
  3  8  1  0
  4  9  1  0
  5  6  1  0
  5  8  1  0
  6 12  1  0
  7 14  1  0
  7 15  1  0
  8 10  2  0
  9 11  2  0
  9 14  1  0
 10 11  1  0
 10 13  1  0
 11 15  1  0
  1 16  1  0
  1 17  1  0
  1 18  1  0
  2 19  1  0
  2 20  1  0
  2 21  1  0
  3 22  1  0
  4 23  1  0
  5 24  1  0
  5 25  1  0
  6 26  1  0
  6 27  1  0
  7 28  1  0
  7 29  1  0
 12 30  1  0
M  END
