
     RDKit          3D

 30 30  0  0  0  0  0  0  0  0999 V2000
   -2.4574   -1.3637   -0.2012 C   0  0  0  0  0  0  0  0  0  0  0  0
   -4.3215    0.3488    1.2283 C   0  0  0  0  0  0  0  0  0  0  0  0
    5.0798   -0.2305    0.1440 C   0  0  0  0  0  0  0  0  0  0  0  0
    1.0486    0.7587    0.9868 C   0  0  0  0  0  0  0  0  0  0  0  0
    2.3958    0.4471    0.7605 C   0  0  0  0  0  0  0  0  0  0  0  0
    0.4665   -0.0192   -1.2262 C   0  0  0  0  0  0  0  0  0  0  0  0
   -2.4879    0.1481   -0.4273 C   0  0  0  0  0  0  0  0  0  0  0  0
    0.0776    0.5168    0.0017 C   0  0  0  0  0  0  0  0  0  0  0  0
    1.8075   -0.3255   -1.4367 C   0  0  0  0  0  0  0  0  0  0  0  0
    2.7844   -0.1027   -0.4586 C   0  0  0  0  0  0  0  0  0  0  0  0
   -1.3376    0.8809    0.3026 C   0  0  0  0  0  0  0  0  0  0  0  0
   -3.7937    0.7625   -0.0678 N   0  0  0  0  0  0  0  0  0  0  0  0
    2.1583   -0.8571   -2.6487 O   0  0  0  0  0  0  0  0  0  0  0  0
   -1.5366    1.7868    1.1155 O   0  0  0  0  0  0  0  0  0  0  0  0
    4.0575   -0.4569   -0.8205 O   0  0  0  0  0  0  0  0  0  0  0  0
   -3.3439   -1.8438   -0.6301 H   0  0  0  0  0  0  0  0  0  0  0  0
   -2.4047   -1.6143    0.8640 H   0  0  0  0  0  0  0  0  0  0  0  0
   -1.5867   -1.8229   -0.6787 H   0  0  0  0  0  0  0  0  0  0  0  0
   -3.6043    0.4942    2.0413 H   0  0  0  0  0  0  0  0  0  0  0  0
   -4.6435   -0.6968    1.2145 H   0  0  0  0  0  0  0  0  0  0  0  0
   -5.2083    0.9481    1.4592 H   0  0  0  0  0  0  0  0  0  0  0  0
    5.1714    0.8351    0.3788 H   0  0  0  0  0  0  0  0  0  0  0  0
    4.9065   -0.8227    1.0486 H   0  0  0  0  0  0  0  0  0  0  0  0
    6.0283   -0.5583   -0.2922 H   0  0  0  0  0  0  0  0  0  0  0  0
    0.7575    1.1951    1.9417 H   0  0  0  0  0  0  0  0  0  0  0  0
    3.1064    0.6509    1.5547 H   0  0  0  0  0  0  0  0  0  0  0  0
   -0.2371   -0.1951   -2.0327 H   0  0  0  0  0  0  0  0  0  0  0  0
   -2.3675    0.3507   -1.4976 H   0  0  0  0  0  0  0  0  0  0  0  0
   -3.6413    1.7752   -0.0250 H   0  0  0  0  0  0  0  0  0  0  0  0
    3.1259   -0.9895   -2.5990 H   0  0  0  0  0  0  0  0  0  0  0  0
  1  7  1  0
  2 12  1  0
  3 15  1  0
  4  5  2  0
  4  8  1  0
  5 10  1  0
  6  8  2  0
  6  9  1  0
  7 11  1  0
  7 12  1  0
  8 11  1  0
  9 10  2  0
  9 13  1  0
 10 15  1  0
 11 14  2  0
  1 16  1  0
  1 17  1  0
  1 18  1  0
  2 19  1  0
  2 20  1  0
  2 21  1  0
  3 22  1  0
  3 23  1  0
  3 24  1  0
  4 25  1  0
  5 26  1  0
  6 27  1  0
  7 28  1  0
 12 29  1  0
 13 30  1  0
M  END
