
     RDKit          3D

 30 31  0  0  0  0  0  0  0  0999 V2000
   -1.8842   -1.5518    1.0261 C   0  0  0  0  0  0  0  0  0  0  0  0
   -3.8785    1.4295   -0.0285 C   0  0  0  0  0  0  0  0  0  0  0  0
   -1.2810   -0.0423   -0.9243 C   0  0  0  0  0  0  0  0  0  0  0  0
    0.9502   -1.2313   -1.1498 C   0  0  0  0  0  0  0  0  0  0  0  0
    0.8995    0.9972   -0.1622 C   0  0  0  0  0  0  0  0  0  0  0  0
    4.3628    1.2207    0.4199 C   0  0  0  0  0  0  0  0  0  0  0  0
   -2.0754   -0.1631    0.3987 C   0  0  0  0  0  0  0  0  0  0  0  0
    0.2213   -0.0912   -0.7408 C   0  0  0  0  0  0  0  0  0  0  0  0
    2.3304   -1.2818   -0.9782 C   0  0  0  0  0  0  0  0  0  0  0  0
    2.2683    0.9081   -0.0100 C   0  0  0  0  0  0  0  0  0  0  0  0
    2.9684   -0.2034   -0.4073 C   0  0  0  0  0  0  0  0  0  0  0  0
   -3.5238    0.0307    0.1831 N   0  0  0  0  0  0  0  0  0  0  0  0
    3.0183   -2.3870   -1.3737 O   0  0  0  0  0  0  0  0  0  0  0  0
    3.0744    1.8617    0.5283 O   0  0  0  0  0  0  0  0  0  0  0  0
    4.3044   -0.0960   -0.1716 O   0  0  0  0  0  0  0  0  0  0  0  0
   -0.8364   -1.7276    1.2897 H   0  0  0  0  0  0  0  0  0  0  0  0
   -2.4645   -1.6492    1.9510 H   0  0  0  0  0  0  0  0  0  0  0  0
   -2.2013   -2.3480    0.3431 H   0  0  0  0  0  0  0  0  0  0  0  0
   -3.4525    1.8260   -0.9539 H   0  0  0  0  0  0  0  0  0  0  0  0
   -4.9665    1.5142   -0.1161 H   0  0  0  0  0  0  0  0  0  0  0  0
   -3.5629    2.0561    0.8119 H   0  0  0  0  0  0  0  0  0  0  0  0
   -1.5071    0.9049   -1.4289 H   0  0  0  0  0  0  0  0  0  0  0  0
   -1.5965   -0.8295   -1.6220 H   0  0  0  0  0  0  0  0  0  0  0  0
    0.4406   -2.0805   -1.5993 H   0  0  0  0  0  0  0  0  0  0  0  0
    0.3706    1.8895    0.1565 H   0  0  0  0  0  0  0  0  0  0  0  0
    5.0174    1.8508   -0.1933 H   0  0  0  0  0  0  0  0  0  0  0  0
    4.7967    1.1344    1.4228 H   0  0  0  0  0  0  0  0  0  0  0  0
   -1.7163    0.5749    1.1276 H   0  0  0  0  0  0  0  0  0  0  0  0
   -4.0320   -0.3050    1.0021 H   0  0  0  0  0  0  0  0  0  0  0  0
    3.9556   -2.2108   -1.1682 H   0  0  0  0  0  0  0  0  0  0  0  0
  1  7  1  0
  2 12  1  0
  3  7  1  0
  3  8  1  0
  4  8  2  0
  4  9  1  0
  5  8  1  0
  5 10  2  0
  6 14  1  0
  6 15  1  0
  7 12  1  0
  9 11  2  0
  9 13  1  0
 10 11  1  0
 10 14  1  0
 11 15  1  0
  1 16  1  0
  1 17  1  0
  1 18  1  0
  2 19  1  0
  2 20  1  0
  2 21  1  0
  3 22  1  0
  3 23  1  0
  4 24  1  0
  5 25  1  0
  6 26  1  0
  6 27  1  0
  7 28  1  0
 12 29  1  0
 13 30  1  0
M  END
