
     RDKit          3D

 31 32  0  0  0  0  0  0  0  0999 V2000
   -1.0410    2.9592    1.2538 C   0  0  0  0  0  0  0  0  0  0  0  0
    3.7026    1.2570    1.3854 C   0  0  0  0  0  0  0  0  0  0  0  0
   -2.1500   -0.2856   -1.2004 C   0  0  0  0  0  0  0  0  0  0  0  0
   -3.0892   -0.8758   -0.1382 C   0  0  0  0  0  0  0  0  0  0  0  0
    0.9780    1.0903    0.5701 C   0  0  0  0  0  0  0  0  0  0  0  0
    1.4337   -2.6394   -1.8817 C   0  0  0  0  0  0  0  0  0  0  0  0
   -0.7304   -0.1069   -0.7147 C   0  0  0  0  0  0  0  0  0  0  0  0
   -0.3569    0.9627    0.1249 C   0  0  0  0  0  0  0  0  0  0  0  0
    1.9575    0.1638    0.1916 C   0  0  0  0  0  0  0  0  0  0  0  0
    0.2636   -1.0064   -1.0685 C   0  0  0  0  0  0  0  0  0  0  0  0
    1.5627   -0.8761   -0.6309 C   0  0  0  0  0  0  0  0  0  0  0  0
   -2.8505   -2.3001    0.1022 N   0  0  0  0  0  0  0  0  0  0  0  0
   -1.3696    1.8280    0.4583 O   0  0  0  0  0  0  0  0  0  0  0  0
    3.2719    0.1839    0.5602 O   0  0  0  0  0  0  0  0  0  0  0  0
    0.0987   -2.1035   -1.8604 O   0  0  0  0  0  0  0  0  0  0  0  0
    2.3660   -1.8747   -1.0991 O   0  0  0  0  0  0  0  0  0  0  0  0
   -1.9541    3.5461    1.3927 H   0  0  0  0  0  0  0  0  0  0  0  0
   -0.3087    3.5984    0.7497 H   0  0  0  0  0  0  0  0  0  0  0  0
   -0.6884    2.6545    2.2445 H   0  0  0  0  0  0  0  0  0  0  0  0
    3.5670    2.2207    0.8833 H   0  0  0  0  0  0  0  0  0  0  0  0
    3.1910    1.2400    2.3533 H   0  0  0  0  0  0  0  0  0  0  0  0
    4.7728    1.1271    1.5725 H   0  0  0  0  0  0  0  0  0  0  0  0
   -2.5368    0.6913   -1.5185 H   0  0  0  0  0  0  0  0  0  0  0  0
   -2.1716   -0.9047   -2.1064 H   0  0  0  0  0  0  0  0  0  0  0  0
   -4.1238   -0.7631   -0.4800 H   0  0  0  0  0  0  0  0  0  0  0  0
   -2.9987   -0.3323    0.8086 H   0  0  0  0  0  0  0  0  0  0  0  0
    1.2500    1.9143    1.2169 H   0  0  0  0  0  0  0  0  0  0  0  0
    1.4065   -3.6641   -1.4938 H   0  0  0  0  0  0  0  0  0  0  0  0
    1.7848   -2.6673   -2.9197 H   0  0  0  0  0  0  0  0  0  0  0  0
   -1.8640   -2.4427    0.3194 H   0  0  0  0  0  0  0  0  0  0  0  0
   -3.3733   -2.5947    0.9248 H   0  0  0  0  0  0  0  0  0  0  0  0
  1 13  1  0
  2 14  1  0
  3  4  1  0
  3  7  1  0
  4 12  1  0
  5  8  2  0
  5  9  1  0
  6 15  1  0
  6 16  1  0
  7  8  1  0
  7 10  2  0
  8 13  1  0
  9 11  2  0
  9 14  1  0
 10 11  1  0
 10 15  1  0
 11 16  1  0
  1 17  1  0
  1 18  1  0
  1 19  1  0
  2 20  1  0
  2 21  1  0
  2 22  1  0
  3 23  1  0
  3 24  1  0
  4 25  1  0
  4 26  1  0
  5 27  1  0
  6 28  1  0
  6 29  1  0
 12 30  1  0
 12 31  1  0
M  END
