
     RDKit          3D

 31 32  0  0  0  0  0  0  0  0999 V2000
    0.2275   -1.1096   -2.9268 C   0  0  0  0  0  0  0  0  0  0  0  0
    3.1190   -0.8821   -0.5202 C   0  0  0  0  0  0  0  0  0  0  0  0
   -2.4592   -0.5094   -0.0855 C   0  0  0  0  0  0  0  0  0  0  0  0
   -2.5282   -1.7862    0.7636 C   0  0  0  0  0  0  0  0  0  0  0  0
   -0.9841    1.2928    0.8772 C   0  0  0  0  0  0  0  0  0  0  0  0
    1.9235    3.1912    1.4203 C   0  0  0  0  0  0  0  0  0  0  0  0
   -1.1248    0.1999    0.0031 C   0  0  0  0  0  0  0  0  0  0  0  0
    0.2425    1.9179    0.9549 C   0  0  0  0  0  0  0  0  0  0  0  0
   -0.0148   -0.2264   -0.7703 C   0  0  0  0  0  0  0  0  0  0  0  0
    1.3243    1.4904    0.2236 C   0  0  0  0  0  0  0  0  0  0  0  0
    1.2327    0.4055   -0.6291 C   0  0  0  0  0  0  0  0  0  0  0  0
   -2.6240   -1.5039    2.1977 N   0  0  0  0  0  0  0  0  0  0  0  0
   -0.2199   -1.3129   -1.5873 O   0  0  0  0  0  0  0  0  0  0  0  0
    2.3309   -0.0100   -1.3308 O   0  0  0  0  0  0  0  0  0  0  0  0
    0.5338    2.9876    1.7432 O   0  0  0  0  0  0  0  0  0  0  0  0
    2.4362    2.2400    0.4677 O   0  0  0  0  0  0  0  0  0  0  0  0
    0.1578   -0.0626   -3.2437 H   0  0  0  0  0  0  0  0  0  0  0  0
    1.2470   -1.4867   -3.0469 H   0  0  0  0  0  0  0  0  0  0  0  0
   -0.4204   -1.6983   -3.5838 H   0  0  0  0  0  0  0  0  0  0  0  0
    3.9451   -1.2527   -1.1345 H   0  0  0  0  0  0  0  0  0  0  0  0
    2.5365   -1.7462   -0.1810 H   0  0  0  0  0  0  0  0  0  0  0  0
    3.5477   -0.3511    0.3364 H   0  0  0  0  0  0  0  0  0  0  0  0
   -2.6587   -0.7621   -1.1347 H   0  0  0  0  0  0  0  0  0  0  0  0
   -3.2675    0.1778    0.1978 H   0  0  0  0  0  0  0  0  0  0  0  0
   -3.4157   -2.3580    0.4700 H   0  0  0  0  0  0  0  0  0  0  0  0
   -1.6558   -2.4233    0.5829 H   0  0  0  0  0  0  0  0  0  0  0  0
   -1.8123    1.6364    1.4880 H   0  0  0  0  0  0  0  0  0  0  0  0
    2.5119    3.1159    2.3420 H   0  0  0  0  0  0  0  0  0  0  0  0
    2.0442    4.2001    1.0089 H   0  0  0  0  0  0  0  0  0  0  0  0
   -2.6929   -2.3834    2.7075 H   0  0  0  0  0  0  0  0  0  0  0  0
   -3.4823   -0.9905    2.3897 H   0  0  0  0  0  0  0  0  0  0  0  0
  1 13  1  0
  2 14  1  0
  3  4  1  0
  3  7  1  0
  4 12  1  0
  5  7  2  0
  5  8  1  0
  6 15  1  0
  6 16  1  0
  7  9  1  0
  8 10  2  0
  8 15  1  0
  9 11  2  0
  9 13  1  0
 10 11  1  0
 10 16  1  0
 11 14  1  0
  1 17  1  0
  1 18  1  0
  1 19  1  0
  2 20  1  0
  2 21  1  0
  2 22  1  0
  3 23  1  0
  3 24  1  0
  4 25  1  0
  4 26  1  0
  5 27  1  0
  6 28  1  0
  6 29  1  0
 12 30  1  0
 12 31  1  0
M  END
