
     RDKit          3D

 31 31  0  0  0  0  0  0  0  0999 V2000
   -4.0316   -0.8341    0.3019 C   0  0  0  0  0  0  0  0  0  0  0  0
    4.7313   -1.1011    0.3283 C   0  0  0  0  0  0  0  0  0  0  0  0
    0.1287    3.0076   -1.1498 C   0  0  0  0  0  0  0  0  0  0  0  0
   -1.7263   -0.0828    0.9787 C   0  0  0  0  0  0  0  0  0  0  0  0
    1.9562   -1.2001    0.9061 C   0  0  0  0  0  0  0  0  0  0  0  0
    1.7768    0.9509   -0.1555 C   0  0  0  0  0  0  0  0  0  0  0  0
   -2.5488   -0.8619   -0.0748 C   0  0  0  0  0  0  0  0  0  0  0  0
    2.5595   -0.1304    0.2542 C   0  0  0  0  0  0  0  0  0  0  0  0
   -0.2261   -0.1050    0.7421 C   0  0  0  0  0  0  0  0  0  0  0  0
    0.5763   -1.1883    1.1483 C   0  0  0  0  0  0  0  0  0  0  0  0
    0.3957    0.9728    0.0739 C   0  0  0  0  0  0  0  0  0  0  0  0
   -0.1314   -2.7027    2.0630 Br  0  0  0  0  0  0  0  0  0  0  0  0
   -2.3811   -0.3228   -1.4290 N   0  0  0  0  0  0  0  0  0  0  0  0
    3.8913   -0.0135   -0.0387 O   0  0  0  0  0  0  0  0  0  0  0  0
   -0.4251    2.0088   -0.3024 O   0  0  0  0  0  0  0  0  0  0  0  0
   -4.6294   -1.4187   -0.4064 H   0  0  0  0  0  0  0  0  0  0  0  0
   -4.4242    0.1889    0.3127 H   0  0  0  0  0  0  0  0  0  0  0  0
   -4.1858   -1.2658    1.2967 H   0  0  0  0  0  0  0  0  0  0  0  0
    4.7432   -1.2408    1.4142 H   0  0  0  0  0  0  0  0  0  0  0  0
    4.4344   -2.0209   -0.1866 H   0  0  0  0  0  0  0  0  0  0  0  0
    5.7504   -0.8573    0.0130 H   0  0  0  0  0  0  0  0  0  0  0  0
    0.8868    3.5939   -0.6209 H   0  0  0  0  0  0  0  0  0  0  0  0
   -0.6793    3.6893   -1.4325 H   0  0  0  0  0  0  0  0  0  0  0  0
    0.5319    2.5716   -2.0700 H   0  0  0  0  0  0  0  0  0  0  0  0
   -1.9377   -0.4760    1.9811 H   0  0  0  0  0  0  0  0  0  0  0  0
   -2.0845    0.9539    1.0332 H   0  0  0  0  0  0  0  0  0  0  0  0
    2.5375   -2.0537    1.2376 H   0  0  0  0  0  0  0  0  0  0  0  0
    2.2819    1.7713   -0.6550 H   0  0  0  0  0  0  0  0  0  0  0  0
   -2.2246   -1.9078   -0.0987 H   0  0  0  0  0  0  0  0  0  0  0  0
   -3.1441   -0.6220   -2.0319 H   0  0  0  0  0  0  0  0  0  0  0  0
   -2.4016    0.6967   -1.3973 H   0  0  0  0  0  0  0  0  0  0  0  0
  1  7  1  0
  2 14  1  0
  3 15  1  0
  4  7  1  0
  4  9  1  0
  5  8  2  0
  5 10  1  0
  6  8  1  0
  6 11  2  0
  7 13  1  0
  8 14  1  0
  9 10  2  0
  9 11  1  0
 10 12  1  0
 11 15  1  0
  1 16  1  0
  1 17  1  0
  1 18  1  0
  2 19  1  0
  2 20  1  0
  2 21  1  0
  3 22  1  0
  3 23  1  0
  3 24  1  0
  4 25  1  0
  4 26  1  0
  5 27  1  0
  6 28  1  0
  7 29  1  0
 13 30  1  0
 13 31  1  0
M  END
