
     RDKit          3D

 31 31  0  0  0  0  0  0  0  0999 V2000
    4.1966   -0.5839   -0.4546 C   0  0  0  0  0  0  0  0  0  0  0  0
   -2.0933   -2.7754   -1.1213 C   0  0  0  0  0  0  0  0  0  0  0  0
   -4.1532    1.7113    1.1973 C   0  0  0  0  0  0  0  0  0  0  0  0
    1.9392    0.4756   -0.8326 C   0  0  0  0  0  0  0  0  0  0  0  0
   -0.3516   -0.5923   -0.6716 C   0  0  0  0  0  0  0  0  0  0  0  0
   -1.4174    1.7073    0.5044 C   0  0  0  0  0  0  0  0  0  0  0  0
    2.8024   -0.3665    0.1318 C   0  0  0  0  0  0  0  0  0  0  0  0
    0.4775    0.5186   -0.4513 C   0  0  0  0  0  0  0  0  0  0  0  0
   -0.0761    1.6564    0.1358 C   0  0  0  0  0  0  0  0  0  0  0  0
   -1.7050   -0.5597   -0.3077 C   0  0  0  0  0  0  0  0  0  0  0  0
   -2.2417    0.6018    0.2871 C   0  0  0  0  0  0  0  0  0  0  0  0
    0.6880    2.7344    0.3611 F   0  0  0  0  0  0  0  0  0  0  0  0
    2.9464    0.2800    1.4393 N   0  0  0  0  0  0  0  0  0  0  0  0
   -2.5801   -1.6025   -0.4857 O   0  0  0  0  0  0  0  0  0  0  0  0
   -3.5739    0.5514    0.6164 O   0  0  0  0  0  0  0  0  0  0  0  0
    4.8136   -1.1976    0.2114 H   0  0  0  0  0  0  0  0  0  0  0  0
    4.7168    0.3667   -0.6183 H   0  0  0  0  0  0  0  0  0  0  0  0
    4.1341   -1.1035   -1.4169 H   0  0  0  0  0  0  0  0  0  0  0  0
   -1.3065   -3.2492   -0.5253 H   0  0  0  0  0  0  0  0  0  0  0  0
   -1.7463   -2.5601   -2.1372 H   0  0  0  0  0  0  0  0  0  0  0  0
   -2.9238   -3.4839   -1.1974 H   0  0  0  0  0  0  0  0  0  0  0  0
   -3.6867    1.9456    2.1597 H   0  0  0  0  0  0  0  0  0  0  0  0
   -4.1007    2.5644    0.5129 H   0  0  0  0  0  0  0  0  0  0  0  0
   -5.2105    1.4995    1.3836 H   0  0  0  0  0  0  0  0  0  0  0  0
    2.3411    1.4945   -0.9104 H   0  0  0  0  0  0  0  0  0  0  0  0
    2.0066    0.0596   -1.8470 H   0  0  0  0  0  0  0  0  0  0  0  0
    0.0834   -1.4746   -1.1302 H   0  0  0  0  0  0  0  0  0  0  0  0
   -1.7768    2.6236    0.9564 H   0  0  0  0  0  0  0  0  0  0  0  0
    2.3364   -1.3478    0.2829 H   0  0  0  0  0  0  0  0  0  0  0  0
    3.4355   -0.3415    2.0818 H   0  0  0  0  0  0  0  0  0  0  0  0
    2.0259    0.4478    1.8455 H   0  0  0  0  0  0  0  0  0  0  0  0
  1  7  1  0
  2 14  1  0
  3 15  1  0
  4  7  1  0
  4  8  1  0
  5  8  2  0
  5 10  1  0
  6  9  2  0
  6 11  1  0
  7 13  1  0
  8  9  1  0
  9 12  1  0
 10 11  2  0
 10 14  1  0
 11 15  1  0
  1 16  1  0
  1 17  1  0
  1 18  1  0
  2 19  1  0
  2 20  1  0
  2 21  1  0
  3 22  1  0
  3 23  1  0
  3 24  1  0
  4 25  1  0
  4 26  1  0
  5 27  1  0
  6 28  1  0
  7 29  1  0
 13 30  1  0
 13 31  1  0
M  END
