
     RDKit          3D

 31 31  0  0  0  0  0  0  0  0999 V2000
    3.8250    1.2842    0.9833 C   0  0  0  0  0  0  0  0  0  0  0  0
    0.9844   -1.9368   -0.2118 C   0  0  0  0  0  0  0  0  0  0  0  0
    3.2456    0.1141    0.2019 C   0  0  0  0  0  0  0  0  0  0  0  0
   -2.2564    1.9217    0.7637 C   0  0  0  0  0  0  0  0  0  0  0  0
   -1.2332    1.5622   -0.1165 C   0  0  0  0  0  0  0  0  0  0  0  0
   -3.2529    1.0029    1.0907 C   0  0  0  0  0  0  0  0  0  0  0  0
   -0.0688   -0.0980   -1.6323 C   0  0  0  0  0  0  0  0  0  0  0  0
   -2.1910   -0.6441   -0.3569 C   0  0  0  0  0  0  0  0  0  0  0  0
    1.2337   -0.6358   -0.9827 C   0  0  0  0  0  0  0  0  0  0  0  0
   -1.1868    0.2791   -0.6828 C   0  0  0  0  0  0  0  0  0  0  0  0
   -3.2166   -0.2788    0.5277 C   0  0  0  0  0  0  0  0  0  0  0  0
    1.8559    0.4016   -0.1441 N   0  0  0  0  0  0  0  0  0  0  0  0
   -4.2620   -1.2516    0.8686 N   0  0  0  0  0  4  0  0  0  0  0  0
   -4.1788   -2.3855    0.3745 O   0  0  0  0  0  1  0  0  0  0  0  0
   -5.1661   -0.8841    1.6327 O   0  0  0  0  0  0  0  0  0  0  0  0
    3.7916    2.2082    0.3961 H   0  0  0  0  0  0  0  0  0  0  0  0
    3.2756    1.4499    1.9162 H   0  0  0  0  0  0  0  0  0  0  0  0
    4.8708    1.0854    1.2391 H   0  0  0  0  0  0  0  0  0  0  0  0
    0.4285   -2.6514   -0.8285 H   0  0  0  0  0  0  0  0  0  0  0  0
    1.9261   -2.4197    0.0681 H   0  0  0  0  0  0  0  0  0  0  0  0
    0.4133   -1.7648    0.7067 H   0  0  0  0  0  0  0  0  0  0  0  0
    3.3227   -0.7896    0.8148 H   0  0  0  0  0  0  0  0  0  0  0  0
    3.8421   -0.0342   -0.7052 H   0  0  0  0  0  0  0  0  0  0  0  0
   -2.2748    2.9213    1.1926 H   0  0  0  0  0  0  0  0  0  0  0  0
   -0.4622    2.2924   -0.3620 H   0  0  0  0  0  0  0  0  0  0  0  0
   -4.0431    1.2986    1.7774 H   0  0  0  0  0  0  0  0  0  0  0  0
   -0.4475   -0.8460   -2.3423 H   0  0  0  0  0  0  0  0  0  0  0  0
    0.1718    0.7783   -2.2504 H   0  0  0  0  0  0  0  0  0  0  0  0
   -2.1664   -1.6404   -0.7949 H   0  0  0  0  0  0  0  0  0  0  0  0
    1.9116   -0.8623   -1.8165 H   0  0  0  0  0  0  0  0  0  0  0  0
    1.3078    0.5230    0.7086 H   0  0  0  0  0  0  0  0  0  0  0  0
  1  3  1  0
  2  9  1  0
  3 12  1  0
  4  5  2  0
  4  6  1  0
  5 10  1  0
  6 11  2  0
  7  9  1  0
  7 10  1  0
  8 10  2  0
  8 11  1  0
  9 12  1  0
 11 13  1  0
 13 14  1  0
 13 15  2  0
  1 16  1  0
  1 17  1  0
  1 18  1  0
  2 19  1  0
  2 20  1  0
  2 21  1  0
  3 22  1  0
  3 23  1  0
  4 24  1  0
  5 25  1  0
  6 26  1  0
  7 27  1  0
  7 28  1  0
  8 29  1  0
  9 30  1  0
 12 31  1  0
M  CHG  2  13   1  14  -1
M  END
