
     RDKit          3D

 33 33  0  0  0  0  0  0  0  0999 V2000
   -3.1827   -0.1162    0.4761 C   0  0  0  0  0  0  0  0  0  0  0  0
    2.4373    2.8533    0.9814 C   0  0  0  0  0  0  0  0  0  0  0  0
    3.6620   -2.4524    1.2215 C   0  0  0  0  0  0  0  0  0  0  0  0
   -1.5618    0.6090   -1.3634 C   0  0  0  0  0  0  0  0  0  0  0  0
    0.6056    1.0221   -0.1598 C   0  0  0  0  0  0  0  0  0  0  0  0
    1.2656   -1.6981   -0.0772 C   0  0  0  0  0  0  0  0  0  0  0  0
   -2.6172    1.0557   -0.3267 C   0  0  0  0  0  0  0  0  0  0  0  0
   -0.2777    0.0963   -0.7445 C   0  0  0  0  0  0  0  0  0  0  0  0
    0.0866   -1.2579   -0.6944 C   0  0  0  0  0  0  0  0  0  0  0  0
    1.7961    0.6075    0.4572 C   0  0  0  0  0  0  0  0  0  0  0  0
    2.1246   -0.7641    0.5026 C   0  0  0  0  0  0  0  0  0  0  0  0
   -3.7145    1.7436   -1.0174 N   0  0  0  0  0  0  0  0  0  0  0  0
   -0.7585   -2.2794   -1.2831 N   0  0  0  0  0  4  0  0  0  0  0  0
   -0.7885   -2.3453   -2.5182 O   0  0  0  0  0  1  0  0  0  0  0  0
   -1.3704   -3.0177   -0.5005 O   0  0  0  0  0  0  0  0  0  0  0  0
    2.6967    1.4583    1.0488 O   0  0  0  0  0  0  0  0  0  0  0  0
    3.3029   -1.0807    1.1309 O   0  0  0  0  0  0  0  0  0  0  0  0
   -3.6257   -0.8751   -0.1782 H   0  0  0  0  0  0  0  0  0  0  0  0
   -2.4030   -0.5962    1.0758 H   0  0  0  0  0  0  0  0  0  0  0  0
   -3.9592    0.2235    1.1710 H   0  0  0  0  0  0  0  0  0  0  0  0
    2.3994    3.1993   -0.0568 H   0  0  0  0  0  0  0  0  0  0  0  0
    1.5187    3.1095    1.5191 H   0  0  0  0  0  0  0  0  0  0  0  0
    3.2656    3.3717    1.4740 H   0  0  0  0  0  0  0  0  0  0  0  0
    4.6129   -2.5145    1.7594 H   0  0  0  0  0  0  0  0  0  0  0  0
    3.8128   -2.8866    0.2278 H   0  0  0  0  0  0  0  0  0  0  0  0
    2.9189   -3.0183    1.7929 H   0  0  0  0  0  0  0  0  0  0  0  0
   -2.0003   -0.1267   -2.0463 H   0  0  0  0  0  0  0  0  0  0  0  0
   -1.2950    1.4621   -2.0037 H   0  0  0  0  0  0  0  0  0  0  0  0
    0.3390    2.0754   -0.1962 H   0  0  0  0  0  0  0  0  0  0  0  0
    1.4877   -2.7604   -0.0645 H   0  0  0  0  0  0  0  0  0  0  0  0
   -2.1679    1.7715    0.3716 H   0  0  0  0  0  0  0  0  0  0  0  0
   -4.1937    1.0938   -1.6422 H   0  0  0  0  0  0  0  0  0  0  0  0
   -4.4163    2.0371   -0.3372 H   0  0  0  0  0  0  0  0  0  0  0  0
  1  7  1  0
  2 16  1  0
  3 17  1  0
  4  7  1  0
  4  8  1  0
  5  8  2  0
  5 10  1  0
  6  9  2  0
  6 11  1  0
  7 12  1  0
  8  9  1  0
  9 13  1  0
 10 11  2  0
 10 16  1  0
 11 17  1  0
 13 14  1  0
 13 15  2  0
  1 18  1  0
  1 19  1  0
  1 20  1  0
  2 21  1  0
  2 22  1  0
  2 23  1  0
  3 24  1  0
  3 25  1  0
  3 26  1  0
  4 27  1  0
  4 28  1  0
  5 29  1  0
  6 30  1  0
  7 31  1  0
 12 32  1  0
 12 33  1  0
M  CHG  2  13   1  14  -1
M  END
