
     RDKit          3D

 29 29  0  0  0  0  0  0  0  0999 V2000
   -3.9843   -0.4680    0.2655 C   0  0  0  0  0  0  0  0  0  0  0  0
    0.4062   -2.0039   -1.5919 C   0  0  0  0  0  0  0  0  0  0  0  0
    0.2137    1.6603    1.9781 C   0  0  0  0  0  0  0  0  0  0  0  0
    1.8502   -0.0396    0.1404 C   0  0  0  0  0  0  0  0  0  0  0  0
    2.3300    0.9908   -0.8913 C   0  0  0  0  0  0  0  0  0  0  0  0
   -1.7372   -1.1599   -0.6270 C   0  0  0  0  0  0  0  0  0  0  0  0
   -1.8276    0.5610    1.0495 C   0  0  0  0  0  0  0  0  0  0  0  0
   -2.4910   -0.3391    0.2137 C   0  0  0  0  0  0  0  0  0  0  0  0
   -0.3350   -1.0742   -0.6664 C   0  0  0  0  0  0  0  0  0  0  0  0
   -0.4268    0.6736    1.0365 C   0  0  0  0  0  0  0  0  0  0  0  0
    0.3357   -0.1539    0.1761 C   0  0  0  0  0  0  0  0  0  0  0  0
    3.7901    1.0954   -0.9199 N   0  0  0  0  0  0  0  0  0  0  0  0
   -4.4507    0.4891    0.5220 H   0  0  0  0  0  0  0  0  0  0  0  0
   -4.2698   -1.2129    1.0145 H   0  0  0  0  0  0  0  0  0  0  0  0
   -4.3844   -0.7725   -0.7074 H   0  0  0  0  0  0  0  0  0  0  0  0
   -0.2803   -2.5510   -2.2473 H   0  0  0  0  0  0  0  0  0  0  0  0
    0.9696   -2.7422   -1.0127 H   0  0  0  0  0  0  0  0  0  0  0  0
    1.0879   -1.4469   -2.2408 H   0  0  0  0  0  0  0  0  0  0  0  0
    0.8894    2.3310    1.4400 H   0  0  0  0  0  0  0  0  0  0  0  0
    0.7660    1.1306    2.7605 H   0  0  0  0  0  0  0  0  0  0  0  0
   -0.5347    2.2911    2.4701 H   0  0  0  0  0  0  0  0  0  0  0  0
    2.2297    0.2191    1.1363 H   0  0  0  0  0  0  0  0  0  0  0  0
    2.2948   -1.0197   -0.0706 H   0  0  0  0  0  0  0  0  0  0  0  0
    1.9149    1.9800   -0.6708 H   0  0  0  0  0  0  0  0  0  0  0  0
    1.9809    0.7240   -1.8945 H   0  0  0  0  0  0  0  0  0  0  0  0
   -2.2505   -1.8794   -1.2629 H   0  0  0  0  0  0  0  0  0  0  0  0
   -2.4115    1.1858    1.7235 H   0  0  0  0  0  0  0  0  0  0  0  0
    4.1930    0.1829   -1.1296 H   0  0  0  0  0  0  0  0  0  0  0  0
    4.1317    1.3489    0.0064 H   0  0  0  0  0  0  0  0  0  0  0  0
  1  8  1  0
  2  9  1  0
  3 10  1  0
  4  5  1  0
  4 11  1  0
  5 12  1  0
  6  8  2  0
  6  9  1  0
  7  8  1  0
  7 10  2  0
  9 11  2  0
 10 11  1  0
  1 13  1  0
  1 14  1  0
  1 15  1  0
  2 16  1  0
  2 17  1  0
  2 18  1  0
  3 19  1  0
  3 20  1  0
  3 21  1  0
  4 22  1  0
  4 23  1  0
  5 24  1  0
  5 25  1  0
  6 26  1  0
  7 27  1  0
 12 28  1  0
 12 29  1  0
M  END
