
     RDKit          3D

 31 31  0  0  0  0  0  0  0  0999 V2000
   -2.7822   -1.1830   -0.6849 C   0  0  0  0  0  0  0  0  0  0  0  0
   -2.6858    0.0983    1.4513 C   0  0  0  0  0  0  0  0  0  0  0  0
   -3.0292    1.2811   -0.6966 C   0  0  0  0  0  0  0  0  0  0  0  0
    3.6029   -0.7187   -1.0793 C   0  0  0  0  0  0  0  0  0  0  0  0
    2.2555   -1.0348   -0.8852 C   0  0  0  0  0  0  0  0  0  0  0  0
    4.2519    0.1594   -0.2113 C   0  0  0  0  0  0  0  0  0  0  0  0
    0.0821   -0.7874    0.3890 C   0  0  0  0  0  0  0  0  0  0  0  0
   -0.7908    0.3179   -0.2189 C   0  0  0  0  0  0  0  0  0  0  0  0
    2.2040    0.4040    1.0537 C   0  0  0  0  0  0  0  0  0  0  0  0
    1.5439   -0.4763    0.1856 C   0  0  0  0  0  0  0  0  0  0  0  0
    3.5449    0.7132    0.8486 C   0  0  0  0  0  0  0  0  0  0  0  0
   -2.3098    0.1059   -0.0257 N   0  0  0  0  0  4  0  0  0  0  0  0
    4.1296    1.5787    1.7233 O   0  0  0  0  0  0  0  0  0  0  0  0
   -3.8746   -1.2187   -0.6302 H   0  0  0  0  0  0  0  0  0  0  0  0
   -2.3592   -2.0337   -0.1449 H   0  0  0  0  0  0  0  0  0  0  0  0
   -2.4511   -1.1804   -1.7273 H   0  0  0  0  0  0  0  0  0  0  0  0
   -2.2851    1.0039    1.9156 H   0  0  0  0  0  0  0  0  0  0  0  0
   -2.2682   -0.7963    1.9195 H   0  0  0  0  0  0  0  0  0  0  0  0
   -3.7772    0.0787    1.5293 H   0  0  0  0  0  0  0  0  0  0  0  0
   -2.7697    1.2836   -1.7594 H   0  0  0  0  0  0  0  0  0  0  0  0
   -2.6995    2.2075   -0.2169 H   0  0  0  0  0  0  0  0  0  0  0  0
   -4.1076    1.1481   -0.5680 H   0  0  0  0  0  0  0  0  0  0  0  0
    4.1514   -1.1610   -1.9085 H   0  0  0  0  0  0  0  0  0  0  0  0
    1.7780   -1.7269   -1.5758 H   0  0  0  0  0  0  0  0  0  0  0  0
    5.2993    0.3946   -0.3759 H   0  0  0  0  0  0  0  0  0  0  0  0
   -0.1021   -0.8966    1.4634 H   0  0  0  0  0  0  0  0  0  0  0  0
   -0.1425   -1.7593   -0.0639 H   0  0  0  0  0  0  0  0  0  0  0  0
   -0.6189    0.3913   -1.3003 H   0  0  0  0  0  0  0  0  0  0  0  0
   -0.5539    1.2918    0.2278 H   0  0  0  0  0  0  0  0  0  0  0  0
    1.6907    0.8530    1.9005 H   0  0  0  0  0  0  0  0  0  0  0  0
    5.0731    1.6618    1.5011 H   0  0  0  0  0  0  0  0  0  0  0  0
  1 12  1  0
  2 12  1  0
  3 12  1  0
  4  5  2  0
  4  6  1  0
  5 10  1  0
  6 11  2  0
  7  8  1  0
  7 10  1  0
  8 12  1  0
  9 10  2  0
  9 11  1  0
 11 13  1  0
  1 14  1  0
  1 15  1  0
  1 16  1  0
  2 17  1  0
  2 18  1  0
  2 19  1  0
  3 20  1  0
  3 21  1  0
  3 22  1  0
  4 23  1  0
  5 24  1  0
  6 25  1  0
  7 26  1  0
  7 27  1  0
  8 28  1  0
  8 29  1  0
  9 30  1  0
 13 31  1  0
M  CHG  1  12   1
M  END
