
     RDKit          3D

 30 30  0  0  0  0  0  0  0  0999 V2000
    2.8520    1.0562   -1.3237 C   0  0  0  0  0  0  0  0  0  0  0  0
   -1.8382    1.8404   -1.8667 C   0  0  0  0  0  0  0  0  0  0  0  0
    2.9452    0.3541    0.0253 C   0  0  0  0  0  0  0  0  0  0  0  0
   -2.5940   -1.8190    1.5165 C   0  0  0  0  0  0  0  0  0  0  0  0
   -3.4468   -0.9060    0.9045 C   0  0  0  0  0  0  0  0  0  0  0  0
   -1.2404   -1.8317    1.1865 C   0  0  0  0  0  0  0  0  0  0  0  0
   -2.9479    0.0008   -0.0345 C   0  0  0  0  0  0  0  0  0  0  0  0
    0.7517   -0.9687   -0.0961 C   0  0  0  0  0  0  0  0  0  0  0  0
   -0.7270   -0.9329    0.2377 C   0  0  0  0  0  0  0  0  0  0  0  0
    1.5728    0.0904    0.6747 C   0  0  0  0  0  0  0  0  0  0  0  0
   -1.5901   -0.0012   -0.3713 C   0  0  0  0  0  0  0  0  0  0  0  0
    1.7963   -0.3550    2.0633 N   0  0  0  0  0  0  0  0  0  0  0  0
   -1.0073    0.8519   -1.2734 O   0  0  0  0  0  0  0  0  0  0  0  0
    3.8542    1.3194   -1.6773 H   0  0  0  0  0  0  0  0  0  0  0  0
    2.3937    0.4193   -2.0848 H   0  0  0  0  0  0  0  0  0  0  0  0
    2.2683    1.9789   -1.2465 H   0  0  0  0  0  0  0  0  0  0  0  0
   -2.6246    1.3815   -2.4748 H   0  0  0  0  0  0  0  0  0  0  0  0
   -1.2143    2.4445   -2.5324 H   0  0  0  0  0  0  0  0  0  0  0  0
   -2.2604    2.5096   -1.1097 H   0  0  0  0  0  0  0  0  0  0  0  0
    3.5456    0.9914    0.6878 H   0  0  0  0  0  0  0  0  0  0  0  0
    3.4982   -0.5860   -0.0940 H   0  0  0  0  0  0  0  0  0  0  0  0
   -2.9792   -2.5173    2.2544 H   0  0  0  0  0  0  0  0  0  0  0  0
   -4.5026   -0.8942    1.1619 H   0  0  0  0  0  0  0  0  0  0  0  0
   -0.5781   -2.5383    1.6813 H   0  0  0  0  0  0  0  0  0  0  0  0
   -3.6478    0.6972   -0.4832 H   0  0  0  0  0  0  0  0  0  0  0  0
    1.1513   -1.9741    0.0965 H   0  0  0  0  0  0  0  0  0  0  0  0
    0.8537   -0.8398   -1.1793 H   0  0  0  0  0  0  0  0  0  0  0  0
    1.0193    1.0363    0.7170 H   0  0  0  0  0  0  0  0  0  0  0  0
    2.3972   -1.1775    2.0675 H   0  0  0  0  0  0  0  0  0  0  0  0
    2.2992    0.3699    2.5729 H   0  0  0  0  0  0  0  0  0  0  0  0
  1  3  1  0
  2 13  1  0
  3 10  1  0
  4  5  2  0
  4  6  1  0
  5  7  1  0
  6  9  2  0
  7 11  2  0
  8  9  1  0
  8 10  1  0
  9 11  1  0
 10 12  1  0
 11 13  1  0
  1 14  1  0
  1 15  1  0
  1 16  1  0
  2 17  1  0
  2 18  1  0
  2 19  1  0
  3 20  1  0
  3 21  1  0
  4 22  1  0
  5 23  1  0
  6 24  1  0
  7 25  1  0
  8 26  1  0
  8 27  1  0
 10 28  1  0
 12 29  1  0
 12 30  1  0
M  END
