
     RDKit          3D

 30 30  0  0  0  0  0  0  0  0999 V2000
    5.6139    0.4574    0.3397 C   0  0  0  0  0  0  0  0  0  0  0  0
   -5.2526    0.7326    0.5896 C   0  0  0  0  0  0  0  0  0  0  0  0
    4.2141    0.4991   -0.2466 C   0  0  0  0  0  0  0  0  0  0  0  0
    0.1019    0.0141   -1.1635 C   0  0  0  0  0  0  0  0  0  0  0  0
   -0.0669   -1.4575    0.7381 C   0  0  0  0  0  0  0  0  0  0  0  0
    1.4622    0.2083   -0.8968 C   0  0  0  0  0  0  0  0  0  0  0  0
    1.2906   -1.2612    1.0017 C   0  0  0  0  0  0  0  0  0  0  0  0
   -2.1445   -1.0162   -0.6280 C   0  0  0  0  0  0  0  0  0  0  0  0
   -3.0040   -0.0081    0.1463 C   0  0  0  0  0  0  0  0  0  0  0  0
   -0.6730   -0.8236   -0.3518 C   0  0  0  0  0  0  0  0  0  0  0  0
    2.0629   -0.4300    0.1878 C   0  0  0  0  0  0  0  0  0  0  0  0
   -4.4264   -0.2119   -0.1510 N   0  0  0  0  0  0  0  0  0  0  0  0
    3.3752   -0.3266    0.5587 O   0  0  0  0  0  0  0  0  0  0  0  0
    5.9939   -0.5695    0.3577 H   0  0  0  0  0  0  0  0  0  0  0  0
    5.6089    0.8135    1.3753 H   0  0  0  0  0  0  0  0  0  0  0  0
    6.2997    1.0778   -0.2439 H   0  0  0  0  0  0  0  0  0  0  0  0
   -5.1299    0.6039    1.6699 H   0  0  0  0  0  0  0  0  0  0  0  0
   -6.3069    0.5560    0.3550 H   0  0  0  0  0  0  0  0  0  0  0  0
   -5.0169    1.7678    0.3225 H   0  0  0  0  0  0  0  0  0  0  0  0
    3.8528    1.5339   -0.2357 H   0  0  0  0  0  0  0  0  0  0  0  0
    4.2460    0.1215   -1.2752 H   0  0  0  0  0  0  0  0  0  0  0  0
   -0.3480    0.5230   -2.0132 H   0  0  0  0  0  0  0  0  0  0  0  0
   -0.6458   -2.1084    1.3895 H   0  0  0  0  0  0  0  0  0  0  0  0
    2.0208    0.8643   -1.5554 H   0  0  0  0  0  0  0  0  0  0  0  0
    1.7510   -1.7611    1.8503 H   0  0  0  0  0  0  0  0  0  0  0  0
   -2.3255   -0.9213   -1.7068 H   0  0  0  0  0  0  0  0  0  0  0  0
   -2.4310   -2.0426   -0.3636 H   0  0  0  0  0  0  0  0  0  0  0  0
   -2.8290   -0.1311    1.2224 H   0  0  0  0  0  0  0  0  0  0  0  0
   -2.7073    1.0136   -0.1227 H   0  0  0  0  0  0  0  0  0  0  0  0
   -4.5863   -0.0850   -1.1501 H   0  0  0  0  0  0  0  0  0  0  0  0
  1  3  1  0
  2 12  1  0
  3 13  1  0
  4  6  2  0
  4 10  1  0
  5  7  1  0
  5 10  2  0
  6 11  1  0
  7 11  2  0
  8  9  1  0
  8 10  1  0
  9 12  1  0
 11 13  1  0
  1 14  1  0
  1 15  1  0
  1 16  1  0
  2 17  1  0
  2 18  1  0
  2 19  1  0
  3 20  1  0
  3 21  1  0
  4 22  1  0
  5 23  1  0
  6 24  1  0
  7 25  1  0
  8 26  1  0
  8 27  1  0
  9 28  1  0
  9 29  1  0
 12 30  1  0
M  END
