
     RDKit          3D

 30 30  0  0  0  0  0  0  0  0999 V2000
   -1.6753   -2.1896   -0.2958 C   0  0  0  0  0  0  0  0  0  0  0  0
   -3.7625    1.6355   -0.8895 C   0  0  0  0  0  0  0  0  0  0  0  0
    5.0165    0.7253    0.2800 C   0  0  0  0  0  0  0  0  0  0  0  0
    0.4357    0.0863   -1.0129 C   0  0  0  0  0  0  0  0  0  0  0  0
    1.1008   -0.6008    1.1937 C   0  0  0  0  0  0  0  0  0  0  0  0
    1.7437    0.5077   -1.2687 C   0  0  0  0  0  0  0  0  0  0  0  0
    2.4112   -0.1786    0.9356 C   0  0  0  0  0  0  0  0  0  0  0  0
   -2.3904    0.1703    0.4484 C   0  0  0  0  0  0  0  0  0  0  0  0
   -1.3178   -0.9496    0.5308 C   0  0  0  0  0  0  0  0  0  0  0  0
    0.0940   -0.4718    0.2247 C   0  0  0  0  0  0  0  0  0  0  0  0
    2.7382    0.3790   -0.2988 C   0  0  0  0  0  0  0  0  0  0  0  0
   -2.8068    0.5362   -0.9123 N   0  0  0  0  0  0  0  0  0  0  0  0
    3.9723    0.8294   -0.6790 O   0  0  0  0  0  0  0  0  0  0  0  0
   -1.6478   -1.9937   -1.3729 H   0  0  0  0  0  0  0  0  0  0  0  0
   -0.9685   -3.0034   -0.0965 H   0  0  0  0  0  0  0  0  0  0  0  0
   -2.6780   -2.5487   -0.0406 H   0  0  0  0  0  0  0  0  0  0  0  0
   -4.6701    1.3674   -0.3389 H   0  0  0  0  0  0  0  0  0  0  0  0
   -4.0523    1.8870   -1.9144 H   0  0  0  0  0  0  0  0  0  0  0  0
   -3.3233    2.5331   -0.4426 H   0  0  0  0  0  0  0  0  0  0  0  0
    5.2091   -0.3203    0.5422 H   0  0  0  0  0  0  0  0  0  0  0  0
    5.9277    1.1276   -0.1730 H   0  0  0  0  0  0  0  0  0  0  0  0
    4.7961    1.3228    1.1708 H   0  0  0  0  0  0  0  0  0  0  0  0
   -0.3130    0.2037   -1.7929 H   0  0  0  0  0  0  0  0  0  0  0  0
    0.8755   -1.0352    2.1653 H   0  0  0  0  0  0  0  0  0  0  0  0
    1.9863    0.9419   -2.2353 H   0  0  0  0  0  0  0  0  0  0  0  0
    3.1488   -0.3018    1.7209 H   0  0  0  0  0  0  0  0  0  0  0  0
   -3.2765   -0.1738    0.9980 H   0  0  0  0  0  0  0  0  0  0  0  0
   -2.0117    1.0582    0.9713 H   0  0  0  0  0  0  0  0  0  0  0  0
   -1.3268   -1.2748    1.5814 H   0  0  0  0  0  0  0  0  0  0  0  0
   -3.2350   -0.2692   -1.3668 H   0  0  0  0  0  0  0  0  0  0  0  0
  1  9  1  0
  2 12  1  0
  3 13  1  0
  4  6  2  0
  4 10  1  0
  5  7  1  0
  5 10  2  0
  6 11  1  0
  7 11  2  0
  8  9  1  0
  8 12  1  0
  9 10  1  0
 11 13  1  0
  1 14  1  0
  1 15  1  0
  1 16  1  0
  2 17  1  0
  2 18  1  0
  2 19  1  0
  3 20  1  0
  3 21  1  0
  3 22  1  0
  4 23  1  0
  5 24  1  0
  6 25  1  0
  7 26  1  0
  8 27  1  0
  8 28  1  0
  9 29  1  0
 12 30  1  0
M  END
