
     RDKit          3D

 32 32  0  0  0  0  0  0  0  0999 V2000
   -2.8841   -1.4665   -0.4517 C   0  0  0  0  0  0  0  0  0  0  0  0
   -2.9706    0.7563    0.6728 C   0  0  0  0  0  0  0  0  0  0  0  0
   -3.0682    0.6041   -1.7970 C   0  0  0  0  0  0  0  0  0  0  0  0
    2.0258   -1.2704   -0.4953 C   0  0  0  0  0  0  0  0  0  0  0  0
    3.3922   -1.1468   -0.7502 C   0  0  0  0  0  0  0  0  0  0  0  0
   -0.1299   -0.4457    0.5306 C   0  0  0  0  0  0  0  0  0  0  0  0
   -0.9120    0.1144   -0.6656 C   0  0  0  0  0  0  0  0  0  0  0  0
    2.0809    0.7548    0.8432 C   0  0  0  0  0  0  0  0  0  0  0  0
    1.3575   -0.3203    0.2982 C   0  0  0  0  0  0  0  0  0  0  0  0
    4.0889   -0.0779   -0.2098 C   0  0  0  0  0  0  0  0  0  0  0  0
    3.4444    0.8641    0.5858 C   0  0  0  0  0  0  0  0  0  0  0  0
   -2.4469   -0.0085   -0.5357 N   0  0  0  0  0  4  0  0  0  0  0  0
    5.4236    0.0379   -0.4660 O   0  0  0  0  0  0  0  0  0  0  0  0
    4.1992    1.8850    1.0908 O   0  0  0  0  0  0  0  0  0  0  0  0
   -2.5393   -1.8862    0.4964 H   0  0  0  0  0  0  0  0  0  0  0  0
   -3.9770   -1.5022   -0.4942 H   0  0  0  0  0  0  0  0  0  0  0  0
   -2.4501   -2.0074   -1.2975 H   0  0  0  0  0  0  0  0  0  0  0  0
   -2.6204    0.2635    1.5832 H   0  0  0  0  0  0  0  0  0  0  0  0
   -2.5995    1.7837    0.6196 H   0  0  0  0  0  0  0  0  0  0  0  0
   -4.0644    0.7420    0.6437 H   0  0  0  0  0  0  0  0  0  0  0  0
   -2.7662    1.6540   -1.8553 H   0  0  0  0  0  0  0  0  0  0  0  0
   -2.7034    0.0488   -2.6662 H   0  0  0  0  0  0  0  0  0  0  0  0
   -4.1569    0.5240   -1.7225 H   0  0  0  0  0  0  0  0  0  0  0  0
    1.4960   -2.1205   -0.9202 H   0  0  0  0  0  0  0  0  0  0  0  0
    3.9136   -1.8788   -1.3611 H   0  0  0  0  0  0  0  0  0  0  0  0
   -0.3931    0.0829    1.4533 H   0  0  0  0  0  0  0  0  0  0  0  0
   -0.3643   -1.5021    0.7014 H   0  0  0  0  0  0  0  0  0  0  0  0
   -0.6923    1.1810   -0.8011 H   0  0  0  0  0  0  0  0  0  0  0  0
   -0.6359   -0.4077   -1.5904 H   0  0  0  0  0  0  0  0  0  0  0  0
    1.5840    1.4954    1.4628 H   0  0  0  0  0  0  0  0  0  0  0  0
    5.7083    0.8393    0.0172 H   0  0  0  0  0  0  0  0  0  0  0  0
    3.6601    2.4098    1.7062 H   0  0  0  0  0  0  0  0  0  0  0  0
  1 12  1  0
  2 12  1  0
  3 12  1  0
  4  5  2  0
  4  9  1  0
  5 10  1  0
  6  7  1  0
  6  9  1  0
  7 12  1  0
  8  9  2  0
  8 11  1  0
 10 11  2  0
 10 13  1  0
 11 14  1  0
  1 15  1  0
  1 16  1  0
  1 17  1  0
  2 18  1  0
  2 19  1  0
  2 20  1  0
  3 21  1  0
  3 22  1  0
  3 23  1  0
  4 24  1  0
  5 25  1  0
  6 26  1  0
  6 27  1  0
  7 28  1  0
  7 29  1  0
  8 30  1  0
 13 31  1  0
 14 32  1  0
M  CHG  1  12   1
M  END
