
     RDKit          3D

 31 31  0  0  0  0  0  0  0  0999 V2000
    4.5618    0.4508   -0.4767 C   0  0  0  0  0  0  0  0  0  0  0  0
   -4.4950   -0.4440    0.6628 C   0  0  0  0  0  0  0  0  0  0  0  0
   -1.4401    2.3069   -0.1023 C   0  0  0  0  0  0  0  0  0  0  0  0
   -0.9558   -2.6128   -0.0426 C   0  0  0  0  0  0  0  0  0  0  0  0
    0.2700   -1.9742    0.1277 C   0  0  0  0  0  0  0  0  0  0  0  0
   -2.1468   -1.8962    0.0896 C   0  0  0  0  0  0  0  0  0  0  0  0
    1.6711    0.0651    0.5899 C   0  0  0  0  0  0  0  0  0  0  0  0
    2.1531    0.6985   -0.7236 C   0  0  0  0  0  0  0  0  0  0  0  0
    0.3228   -0.6047    0.4228 C   0  0  0  0  0  0  0  0  0  0  0  0
   -2.1251   -0.5293    0.3864 C   0  0  0  0  0  0  0  0  0  0  0  0
   -0.8810    0.1199    0.5197 C   0  0  0  0  0  0  0  0  0  0  0  0
    3.4495    1.3820   -0.6135 N   0  0  0  0  0  0  0  0  0  0  0  0
   -3.2498    0.2339    0.5647 O   0  0  0  0  0  0  0  0  0  0  0  0
   -0.7637    1.4566    0.8213 O   0  0  0  0  0  0  0  0  0  0  0  0
    4.5974   -0.2602   -1.3084 H   0  0  0  0  0  0  0  0  0  0  0  0
    5.5023    1.0110   -0.4768 H   0  0  0  0  0  0  0  0  0  0  0  0
    4.5179   -0.0996    0.4673 H   0  0  0  0  0  0  0  0  0  0  0  0
   -4.7704   -0.8971   -0.2950 H   0  0  0  0  0  0  0  0  0  0  0  0
   -5.2602    0.2981    0.9103 H   0  0  0  0  0  0  0  0  0  0  0  0
   -4.4825   -1.1887    1.4656 H   0  0  0  0  0  0  0  0  0  0  0  0
   -0.8579    3.2296   -0.1898 H   0  0  0  0  0  0  0  0  0  0  0  0
   -1.5224    1.8698   -1.1042 H   0  0  0  0  0  0  0  0  0  0  0  0
   -2.4271    2.5754    0.2849 H   0  0  0  0  0  0  0  0  0  0  0  0
   -0.9853   -3.6755   -0.2706 H   0  0  0  0  0  0  0  0  0  0  0  0
    1.1873   -2.5512    0.0315 H   0  0  0  0  0  0  0  0  0  0  0  0
   -3.0773   -2.4376   -0.0431 H   0  0  0  0  0  0  0  0  0  0  0  0
    2.3902   -0.6827    0.9457 H   0  0  0  0  0  0  0  0  0  0  0  0
    1.6173    0.8207    1.3836 H   0  0  0  0  0  0  0  0  0  0  0  0
    2.1880   -0.0495   -1.5261 H   0  0  0  0  0  0  0  0  0  0  0  0
    1.4189    1.4478   -1.0439 H   0  0  0  0  0  0  0  0  0  0  0  0
    3.5928    1.9371   -1.4572 H   0  0  0  0  0  0  0  0  0  0  0  0
  1 12  1  0
  2 13  1  0
  3 14  1  0
  4  5  2  0
  4  6  1  0
  5  9  1  0
  6 10  2  0
  7  8  1  0
  7  9  1  0
  8 12  1  0
  9 11  2  0
 10 11  1  0
 10 13  1  0
 11 14  1  0
  1 15  1  0
  1 16  1  0
  1 17  1  0
  2 18  1  0
  2 19  1  0
  2 20  1  0
  3 21  1  0
  3 22  1  0
  3 23  1  0
  4 24  1  0
  5 25  1  0
  6 26  1  0
  7 27  1  0
  7 28  1  0
  8 29  1  0
  8 30  1  0
 12 31  1  0
M  END
