
     RDKit          3D

 31 31  0  0  0  0  0  0  0  0999 V2000
   -3.9425   -1.3335   -0.7025 C   0  0  0  0  0  0  0  0  0  0  0  0
    2.3086    3.8228   -0.7001 C   0  0  0  0  0  0  0  0  0  0  0  0
    2.8548   -2.0660    1.6997 C   0  0  0  0  0  0  0  0  0  0  0  0
   -1.4599   -1.0216   -1.0122 C   0  0  0  0  0  0  0  0  0  0  0  0
   -0.0317    1.0655   -0.9852 C   0  0  0  0  0  0  0  0  0  0  0  0
    0.7829   -0.9036    0.1560 C   0  0  0  0  0  0  0  0  0  0  0  0
    2.0886    1.1298    0.1547 C   0  0  0  0  0  0  0  0  0  0  0  0
   -2.6792   -0.6992   -0.1226 C   0  0  0  0  0  0  0  0  0  0  0  0
   -0.2078   -0.2735   -0.6115 C   0  0  0  0  0  0  0  0  0  0  0  0
    1.1125    1.7714   -0.6076 C   0  0  0  0  0  0  0  0  0  0  0  0
    1.9296   -0.2065    0.5398 C   0  0  0  0  0  0  0  0  0  0  0  0
   -2.4959   -1.1925    1.2490 N   0  0  0  0  0  0  0  0  0  0  0  0
    1.1519    3.0686   -1.0410 O   0  0  0  0  0  0  0  0  0  0  0  0
    2.9603   -0.7084    1.2888 O   0  0  0  0  0  0  0  0  0  0  0  0
   -3.8564   -2.4247   -0.7564 H   0  0  0  0  0  0  0  0  0  0  0  0
   -4.8205   -1.0927   -0.0926 H   0  0  0  0  0  0  0  0  0  0  0  0
   -4.1323   -0.9604   -1.7148 H   0  0  0  0  0  0  0  0  0  0  0  0
    3.2112    3.3805   -1.1346 H   0  0  0  0  0  0  0  0  0  0  0  0
    2.4030    3.9313    0.3854 H   0  0  0  0  0  0  0  0  0  0  0  0
    2.1914    4.8243   -1.1252 H   0  0  0  0  0  0  0  0  0  0  0  0
    3.7516   -2.3107    2.2770 H   0  0  0  0  0  0  0  0  0  0  0  0
    1.9882   -2.2145    2.3525 H   0  0  0  0  0  0  0  0  0  0  0  0
    2.8212   -2.7387    0.8363 H   0  0  0  0  0  0  0  0  0  0  0  0
   -1.2627   -2.1022   -1.0104 H   0  0  0  0  0  0  0  0  0  0  0  0
   -1.6869   -0.7689   -2.0568 H   0  0  0  0  0  0  0  0  0  0  0  0
   -0.7903    1.5711   -1.5791 H   0  0  0  0  0  0  0  0  0  0  0  0
    0.6283   -1.9387    0.4456 H   0  0  0  0  0  0  0  0  0  0  0  0
    2.9912    1.6423    0.4702 H   0  0  0  0  0  0  0  0  0  0  0  0
   -2.8264    0.3869   -0.0800 H   0  0  0  0  0  0  0  0  0  0  0  0
   -1.6874   -0.7229    1.6604 H   0  0  0  0  0  0  0  0  0  0  0  0
   -3.2956   -0.9152    1.8174 H   0  0  0  0  0  0  0  0  0  0  0  0
  1  8  1  0
  2 13  1  0
  3 14  1  0
  4  8  1  0
  4  9  1  0
  5  9  2  0
  5 10  1  0
  6  9  1  0
  6 11  2  0
  7 10  2  0
  7 11  1  0
  8 12  1  0
 10 13  1  0
 11 14  1  0
  1 15  1  0
  1 16  1  0
  1 17  1  0
  2 18  1  0
  2 19  1  0
  2 20  1  0
  3 21  1  0
  3 22  1  0
  3 23  1  0
  4 24  1  0
  4 25  1  0
  5 26  1  0
  6 27  1  0
  7 28  1  0
  8 29  1  0
 12 30  1  0
 12 31  1  0
M  END
