
     RDKit          3D

 31 31  0  0  0  0  0  0  0  0999 V2000
   -2.1569   -2.3520   -0.8976 C   0  0  0  0  0  0  0  0  0  0  0  0
    3.0598    2.3816   -2.0546 C   0  0  0  0  0  0  0  0  0  0  0  0
    2.6030   -0.3754    2.6293 C   0  0  0  0  0  0  0  0  0  0  0  0
   -0.4853    0.2142   -1.3074 C   0  0  0  0  0  0  0  0  0  0  0  0
    0.6716    0.9518   -1.5743 C   0  0  0  0  0  0  0  0  0  0  0  0
    0.4510   -0.4894    0.8006 C   0  0  0  0  0  0  0  0  0  0  0  0
   -3.0989   -0.4205    0.4333 C   0  0  0  0  0  0  0  0  0  0  0  0
   -1.8643   -1.3215    0.2002 C   0  0  0  0  0  0  0  0  0  0  0  0
   -0.6094   -0.5185   -0.1212 C   0  0  0  0  0  0  0  0  0  0  0  0
    1.7263    0.9746   -0.6572 C   0  0  0  0  0  0  0  0  0  0  0  0
    1.6140    0.2491    0.5445 C   0  0  0  0  0  0  0  0  0  0  0  0
   -2.9492    0.4438    1.6060 N   0  0  0  0  0  0  0  0  0  0  0  0
    2.8953    1.6725   -0.8356 O   0  0  0  0  0  0  0  0  0  0  0  0
    2.6878    0.3262    1.3976 O   0  0  0  0  0  0  0  0  0  0  0  0
   -1.2858   -2.9919   -1.0772 H   0  0  0  0  0  0  0  0  0  0  0  0
   -2.9912   -2.9985   -0.6040 H   0  0  0  0  0  0  0  0  0  0  0  0
   -2.4261   -1.8768   -1.8469 H   0  0  0  0  0  0  0  0  0  0  0  0
    3.0341    1.7036   -2.9140 H   0  0  0  0  0  0  0  0  0  0  0  0
    2.3123    3.1756   -2.1532 H   0  0  0  0  0  0  0  0  0  0  0  0
    4.0460    2.8554   -2.0355 H   0  0  0  0  0  0  0  0  0  0  0  0
    3.5317   -0.1974    3.1800 H   0  0  0  0  0  0  0  0  0  0  0  0
    1.7770   -0.0003    3.2424 H   0  0  0  0  0  0  0  0  0  0  0  0
    2.5173   -1.4545    2.4643 H   0  0  0  0  0  0  0  0  0  0  0  0
   -1.2889    0.2224   -2.0403 H   0  0  0  0  0  0  0  0  0  0  0  0
    0.7161    1.5005   -2.5088 H   0  0  0  0  0  0  0  0  0  0  0  0
    0.3421   -1.0516    1.7229 H   0  0  0  0  0  0  0  0  0  0  0  0
   -3.2952    0.2039   -0.4461 H   0  0  0  0  0  0  0  0  0  0  0  0
   -3.9847   -1.0468    0.5882 H   0  0  0  0  0  0  0  0  0  0  0  0
   -1.6875   -1.8937    1.1218 H   0  0  0  0  0  0  0  0  0  0  0  0
   -2.1211    1.0300    1.4860 H   0  0  0  0  0  0  0  0  0  0  0  0
   -3.7408    1.0836    1.6568 H   0  0  0  0  0  0  0  0  0  0  0  0
  1  8  1  0
  2 13  1  0
  3 14  1  0
  4  5  2  0
  4  9  1  0
  5 10  1  0
  6  9  2  0
  6 11  1  0
  7  8  1  0
  7 12  1  0
  8  9  1  0
 10 11  2  0
 10 13  1  0
 11 14  1  0
  1 15  1  0
  1 16  1  0
  1 17  1  0
  2 18  1  0
  2 19  1  0
  2 20  1  0
  3 21  1  0
  3 22  1  0
  3 23  1  0
  4 24  1  0
  5 25  1  0
  6 26  1  0
  7 27  1  0
  7 28  1  0
  8 29  1  0
 12 30  1  0
 12 31  1  0
M  END
