
     RDKit          3D

 32 32  0  0  0  0  0  0  0  0999 V2000
   -3.9171   -2.1423   -0.0535 C   0  0  0  0  0  0  0  0  0  0  0  0
   -2.0975    2.9865   -0.4219 C   0  0  0  0  0  0  0  0  0  0  0  0
    2.9497   -0.5770   -2.0985 C   0  0  0  0  0  0  0  0  0  0  0  0
    0.2421   -1.4463    0.1038 C   0  0  0  0  0  0  0  0  0  0  0  0
   -1.1300   -1.7056    0.0654 C   0  0  0  0  0  0  0  0  0  0  0  0
   -0.1942    0.9133   -0.1602 C   0  0  0  0  0  0  0  0  0  0  0  0
    2.7448    0.1380    1.5026 C   0  0  0  0  0  0  0  0  0  0  0  0
    0.7261   -0.1378   -0.0131 C   0  0  0  0  0  0  0  0  0  0  0  0
   -2.0443   -0.6585   -0.0852 C   0  0  0  0  0  0  0  0  0  0  0  0
   -1.5722    0.6646   -0.1961 C   0  0  0  0  0  0  0  0  0  0  0  0
    2.2173    0.1597    0.0438 C   0  0  0  0  0  0  0  0  0  0  0  0
    2.1939    1.1913    2.3670 N   0  0  0  0  0  0  0  0  0  0  0  0
   -3.4074   -0.8192   -0.1304 O   0  0  0  0  0  0  0  0  0  0  0  0
   -2.5320    1.6374   -0.3341 O   0  0  0  0  0  0  0  0  0  0  0  0
    2.9558   -0.8277   -0.6978 O   0  0  0  0  0  0  0  0  0  0  0  0
   -5.0079   -2.0849   -0.1207 H   0  0  0  0  0  0  0  0  0  0  0  0
   -3.5648   -2.7518   -0.8921 H   0  0  0  0  0  0  0  0  0  0  0  0
   -3.6680   -2.6062    0.9065 H   0  0  0  0  0  0  0  0  0  0  0  0
   -1.5675    3.2914    0.4865 H   0  0  0  0  0  0  0  0  0  0  0  0
   -2.9859    3.6185   -0.5153 H   0  0  0  0  0  0  0  0  0  0  0  0
   -1.4819    3.1459   -1.3133 H   0  0  0  0  0  0  0  0  0  0  0  0
    1.9315   -0.5892   -2.4979 H   0  0  0  0  0  0  0  0  0  0  0  0
    3.5222   -1.3691   -2.5887 H   0  0  0  0  0  0  0  0  0  0  0  0
    3.4294    0.3818   -2.3171 H   0  0  0  0  0  0  0  0  0  0  0  0
    0.9379   -2.2758    0.2191 H   0  0  0  0  0  0  0  0  0  0  0  0
   -1.4511   -2.7375    0.1562 H   0  0  0  0  0  0  0  0  0  0  0  0
    0.1931    1.9247   -0.2378 H   0  0  0  0  0  0  0  0  0  0  0  0
    2.5513   -0.8403    1.9600 H   0  0  0  0  0  0  0  0  0  0  0  0
    3.8359    0.2471    1.4810 H   0  0  0  0  0  0  0  0  0  0  0  0
    2.4268    1.1493   -0.3844 H   0  0  0  0  0  0  0  0  0  0  0  0
    1.1873    1.0428    2.4609 H   0  0  0  0  0  0  0  0  0  0  0  0
    2.5766    1.0768    3.3053 H   0  0  0  0  0  0  0  0  0  0  0  0
  1 13  1  0
  2 14  1  0
  3 15  1  0
  4  5  2  0
  4  8  1  0
  5  9  1  0
  6  8  2  0
  6 10  1  0
  7 11  1  0
  7 12  1  0
  8 11  1  0
  9 10  2  0
  9 13  1  0
 10 14  1  0
 11 15  1  0
  1 16  1  0
  1 17  1  0
  1 18  1  0
  2 19  1  0
  2 20  1  0
  2 21  1  0
  3 22  1  0
  3 23  1  0
  3 24  1  0
  4 25  1  0
  5 26  1  0
  6 27  1  0
  7 28  1  0
  7 29  1  0
 11 30  1  0
 12 31  1  0
 12 32  1  0
M  END
