
     RDKit          3D

 32 32  0  0  0  0  0  0  0  0999 V2000
   -2.2456   -0.8068    0.7597 C   0  0  0  0  0  0  0  0  0  0  0  0
   -3.4969    1.7980   -0.3603 C   0  0  0  0  0  0  0  0  0  0  0  0
    2.3986   -1.9520    2.4501 C   0  0  0  0  0  0  0  0  0  0  0  0
    1.1756    0.6749   -1.6789 C   0  0  0  0  0  0  0  0  0  0  0  0
    2.4463    1.0900   -1.2829 C   0  0  0  0  0  0  0  0  0  0  0  0
   -0.8781   -0.7699   -1.4101 C   0  0  0  0  0  0  0  0  0  0  0  0
    1.1231   -0.9142    0.1457 C   0  0  0  0  0  0  0  0  0  0  0  0
   -2.1114   -0.2062   -0.6485 C   0  0  0  0  0  0  0  0  0  0  0  0
    0.4989   -0.3261   -0.9675 C   0  0  0  0  0  0  0  0  0  0  0  0
    3.0470    0.5023   -0.1706 C   0  0  0  0  0  0  0  0  0  0  0  0
    2.3949   -0.5014    0.5580 C   0  0  0  0  0  0  0  0  0  0  0  0
   -2.1789    1.2732   -0.7139 N   0  0  0  0  0  0  0  0  0  0  0  0
    4.2949    0.9104    0.2210 O   0  0  0  0  0  0  0  0  0  0  0  0
   -1.2879    1.7973    0.3113 O   0  0  0  0  0  0  0  0  0  0  0  0
    3.0775   -1.0116    1.6312 O   0  0  0  0  0  0  0  0  0  0  0  0
   -3.2150   -0.5628    1.2055 H   0  0  0  0  0  0  0  0  0  0  0  0
   -1.4661   -0.4542    1.4416 H   0  0  0  0  0  0  0  0  0  0  0  0
   -2.1804   -1.8997    0.7167 H   0  0  0  0  0  0  0  0  0  0  0  0
   -4.2638    1.4044   -1.0357 H   0  0  0  0  0  0  0  0  0  0  0  0
   -3.7865    1.5697    0.6705 H   0  0  0  0  0  0  0  0  0  0  0  0
   -3.5019    2.8876   -0.4752 H   0  0  0  0  0  0  0  0  0  0  0  0
    1.4836   -1.5237    2.8729 H   0  0  0  0  0  0  0  0  0  0  0  0
    2.1864   -2.8734    1.8981 H   0  0  0  0  0  0  0  0  0  0  0  0
    3.0600   -2.2095    3.2830 H   0  0  0  0  0  0  0  0  0  0  0  0
    0.7105    1.1371   -2.5477 H   0  0  0  0  0  0  0  0  0  0  0  0
    2.9507    1.8660   -1.8497 H   0  0  0  0  0  0  0  0  0  0  0  0
   -0.9087   -1.8679   -1.3803 H   0  0  0  0  0  0  0  0  0  0  0  0
   -0.9933   -0.5215   -2.4749 H   0  0  0  0  0  0  0  0  0  0  0  0
    0.5953   -1.7001    0.6753 H   0  0  0  0  0  0  0  0  0  0  0  0
   -2.9725   -0.5844   -1.2185 H   0  0  0  0  0  0  0  0  0  0  0  0
    4.6202    1.5772   -0.4025 H   0  0  0  0  0  0  0  0  0  0  0  0
   -0.5763    2.1973   -0.2234 H   0  0  0  0  0  0  0  0  0  0  0  0
  1  8  1  0
  2 12  1  0
  3 15  1  0
  4  5  2  0
  4  9  1  0
  5 10  1  0
  6  8  1  0
  6  9  1  0
  7  9  2  0
  7 11  1  0
  8 12  1  0
 10 11  2  0
 10 13  1  0
 11 15  1  0
 12 14  1  0
  1 16  1  0
  1 17  1  0
  1 18  1  0
  2 19  1  0
  2 20  1  0
  2 21  1  0
  3 22  1  0
  3 23  1  0
  3 24  1  0
  4 25  1  0
  5 26  1  0
  6 27  1  0
  6 28  1  0
  7 29  1  0
  8 30  1  0
 13 31  1  0
 14 32  1  0
M  END
