
     RDKit          3D

 31 31  0  0  0  0  0  0  0  0999 V2000
   -3.6883   -1.1571    0.4264 C   0  0  0  0  0  0  0  0  0  0  0  0
   -3.1018    1.6134   -0.5740 C   0  0  0  0  0  0  0  0  0  0  0  0
    4.7590    1.3042    0.4244 C   0  0  0  0  0  0  0  0  0  0  0  0
    0.6639    0.4910   -0.6848 C   0  0  0  0  0  0  0  0  0  0  0  0
    0.8968   -1.6985    0.2736 C   0  0  0  0  0  0  0  0  0  0  0  0
    2.0200    0.7421   -0.4395 C   0  0  0  0  0  0  0  0  0  0  0  0
    2.2509   -1.4402    0.5152 C   0  0  0  0  0  0  0  0  0  0  0  0
   -1.3755   -1.0045   -0.5913 C   0  0  0  0  0  0  0  0  0  0  0  0
   -2.3195   -0.4714    0.5146 C   0  0  0  0  0  0  0  0  0  0  0  0
    0.0876   -0.7310   -0.3289 C   0  0  0  0  0  0  0  0  0  0  0  0
    2.8299   -0.2043    0.1958 C   0  0  0  0  0  0  0  0  0  0  0  0
   -2.4406    0.9981    0.5668 N   0  0  0  0  0  0  0  0  0  0  0  0
    4.2043   -0.0371    0.4061 N   0  0  0  0  0  0  0  0  0  0  0  0
   -4.1556   -1.0135   -0.5534 H   0  0  0  0  0  0  0  0  0  0  0  0
   -4.3707   -0.7765    1.1944 H   0  0  0  0  0  0  0  0  0  0  0  0
   -3.5853   -2.2360    0.5878 H   0  0  0  0  0  0  0  0  0  0  0  0
   -2.5910    1.3974   -1.5159 H   0  0  0  0  0  0  0  0  0  0  0  0
   -4.1505    1.3130   -0.6546 H   0  0  0  0  0  0  0  0  0  0  0  0
   -3.0861    2.7010   -0.4480 H   0  0  0  0  0  0  0  0  0  0  0  0
    4.7036    1.7740   -0.5627 H   0  0  0  0  0  0  0  0  0  0  0  0
    4.2555    1.9354    1.1642 H   0  0  0  0  0  0  0  0  0  0  0  0
    5.8179    1.2500    0.6971 H   0  0  0  0  0  0  0  0  0  0  0  0
    0.0600    1.2620   -1.1574 H   0  0  0  0  0  0  0  0  0  0  0  0
    0.4867   -2.6659    0.5519 H   0  0  0  0  0  0  0  0  0  0  0  0
    2.4212    1.6990   -0.7569 H   0  0  0  0  0  0  0  0  0  0  0  0
    2.8577   -2.2241    0.9612 H   0  0  0  0  0  0  0  0  0  0  0  0
   -1.5048   -2.0922   -0.6794 H   0  0  0  0  0  0  0  0  0  0  0  0
   -1.6498   -0.6131   -1.5782 H   0  0  0  0  0  0  0  0  0  0  0  0
   -1.8882   -0.7668    1.4807 H   0  0  0  0  0  0  0  0  0  0  0  0
   -2.9382    1.2588    1.4180 H   0  0  0  0  0  0  0  0  0  0  0  0
    4.5309   -0.6072    1.1823 H   0  0  0  0  0  0  0  0  0  0  0  0
  1  9  1  0
  2 12  1  0
  3 13  1  0
  4  6  2  0
  4 10  1  0
  5  7  1  0
  5 10  2  0
  6 11  1  0
  7 11  2  0
  8  9  1  0
  8 10  1  0
  9 12  1  0
 11 13  1  0
  1 14  1  0
  1 15  1  0
  1 16  1  0
  2 17  1  0
  2 18  1  0
  2 19  1  0
  3 20  1  0
  3 21  1  0
  3 22  1  0
  4 23  1  0
  5 24  1  0
  6 25  1  0
  7 26  1  0
  8 27  1  0
  8 28  1  0
  9 29  1  0
 12 30  1  0
 13 31  1  0
M  END
