
     RDKit          3D

 32 33  0  0  0  0  0  0  0  0999 V2000
   -1.3837    0.1265   -2.0235 C   0  0  0  0  0  0  0  0  0  0  0  0
   -1.0160    2.1548   -0.6335 C   0  0  0  0  0  0  0  0  0  0  0  0
   -3.3649    0.7201    0.3356 C   0  0  0  0  0  0  0  0  0  0  0  0
   -2.1772   -1.3551    0.4297 C   0  0  0  0  0  0  0  0  0  0  0  0
    0.7904    0.4283    1.2082 C   0  0  0  0  0  0  0  0  0  0  0  0
    2.0640    0.0856    1.6750 C   0  0  0  0  0  0  0  0  0  0  0  0
    1.3164   -0.4195   -1.0054 C   0  0  0  0  0  0  0  0  0  0  0  0
    4.5972   -1.4272   -0.2288 C   0  0  0  0  0  0  0  0  0  0  0  0
    0.3874    0.1832   -0.1360 C   0  0  0  0  0  0  0  0  0  0  0  0
    2.9305   -0.5018    0.7844 C   0  0  0  0  0  0  0  0  0  0  0  0
    2.5668   -0.7469   -0.5169 C   0  0  0  0  0  0  0  0  0  0  0  0
   -1.0398    0.6016   -0.5869 C   0  0  0  0  0  0  0  0  0  0  0  0
   -2.0402    0.1051    0.4094 N   0  0  0  0  0  0  0  0  0  0  0  0
    4.2016   -0.9011    1.0543 O   0  0  0  0  0  0  0  0  0  0  0  0
    3.5657   -1.3320   -1.2328 O   0  0  0  0  0  0  0  0  0  0  0  0
   -2.3990    0.4147   -2.3160 H   0  0  0  0  0  0  0  0  0  0  0  0
   -0.7124    0.5796   -2.7635 H   0  0  0  0  0  0  0  0  0  0  0  0
   -1.3014   -0.9604   -2.1343 H   0  0  0  0  0  0  0  0  0  0  0  0
   -0.1757    2.5193   -1.2382 H   0  0  0  0  0  0  0  0  0  0  0  0
   -0.9076    2.5951    0.3649 H   0  0  0  0  0  0  0  0  0  0  0  0
   -1.9282    2.5653   -1.0817 H   0  0  0  0  0  0  0  0  0  0  0  0
   -3.8626    0.5404   -0.6224 H   0  0  0  0  0  0  0  0  0  0  0  0
   -4.0141    0.3231    1.1256 H   0  0  0  0  0  0  0  0  0  0  0  0
   -3.3216    1.7984    0.5156 H   0  0  0  0  0  0  0  0  0  0  0  0
   -2.6859   -1.7398   -0.4609 H   0  0  0  0  0  0  0  0  0  0  0  0
   -2.7608   -1.6646    1.3048 H   0  0  0  0  0  0  0  0  0  0  0  0
   -1.2106   -1.8603    0.5213 H   0  0  0  0  0  0  0  0  0  0  0  0
    0.0867    0.8870    1.9024 H   0  0  0  0  0  0  0  0  0  0  0  0
    2.3551    0.2742    2.7015 H   0  0  0  0  0  0  0  0  0  0  0  0
    1.0921   -0.6370   -2.0426 H   0  0  0  0  0  0  0  0  0  0  0  0
    5.4775   -0.8750   -0.5777 H   0  0  0  0  0  0  0  0  0  0  0  0
    4.8704   -2.4817   -0.1062 H   0  0  0  0  0  0  0  0  0  0  0  0
  1 12  1  0
  2 12  1  0
  3 13  1  0
  4 13  1  0
  5  6  2  0
  5  9  1  0
  6 10  1  0
  7  9  2  0
  7 11  1  0
  8 14  1  0
  8 15  1  0
  9 12  1  0
 10 11  2  0
 10 14  1  0
 11 15  1  0
 12 13  1  0
  1 16  1  0
  1 17  1  0
  1 18  1  0
  2 19  1  0
  2 20  1  0
  2 21  1  0
  3 22  1  0
  3 23  1  0
  3 24  1  0
  4 25  1  0
  4 26  1  0
  4 27  1  0
  5 28  1  0
  6 29  1  0
  7 30  1  0
  8 31  1  0
  8 32  1  0
M  END
