
     RDKit          3D

 32 33  0  0  0  0  0  0  0  0999 V2000
   -4.7241   -0.5422   -0.9936 C   0  0  0  0  0  0  0  0  0  0  0  0
   -2.9281    1.4147    0.5057 C   0  0  0  0  0  0  0  0  0  0  0  0
   -3.2340   -0.6826   -0.6996 C   0  0  0  0  0  0  0  0  0  0  0  0
    1.6701   -1.4452   -0.6069 C   0  0  0  0  0  0  0  0  0  0  0  0
    3.0468   -1.5235   -0.8398 C   0  0  0  0  0  0  0  0  0  0  0  0
   -0.3739   -0.3056    0.3711 C   0  0  0  0  0  0  0  0  0  0  0  0
   -1.0778    0.4669   -0.7598 C   0  0  0  0  0  0  0  0  0  0  0  0
    1.9637    0.6145    0.6600 C   0  0  0  0  0  0  0  0  0  0  0  0
    5.4573    0.7716    0.2904 C   0  0  0  0  0  0  0  0  0  0  0  0
    1.1195   -0.3829    0.1459 C   0  0  0  0  0  0  0  0  0  0  0  0
    3.8431   -0.5298   -0.3149 C   0  0  0  0  0  0  0  0  0  0  0  0
    3.3166    0.5100    0.4137 C   0  0  0  0  0  0  0  0  0  0  0  0
   -2.5426    0.6124   -0.6542 N   0  0  0  0  0  0  0  0  0  0  0  0
    5.1943   -0.4434   -0.4417 O   0  0  0  0  0  0  0  0  0  0  0  0
    4.2702    1.3826    0.8369 O   0  0  0  0  0  0  0  0  0  0  0  0
   -5.2598   -0.0635   -0.1685 H   0  0  0  0  0  0  0  0  0  0  0  0
   -4.8939    0.0418   -1.9043 H   0  0  0  0  0  0  0  0  0  0  0  0
   -5.1687   -1.5318   -1.1430 H   0  0  0  0  0  0  0  0  0  0  0  0
   -2.3593    2.3510    0.5366 H   0  0  0  0  0  0  0  0  0  0  0  0
   -3.9817    1.7058    0.4480 H   0  0  0  0  0  0  0  0  0  0  0  0
   -2.7717    0.8862    1.4522 H   0  0  0  0  0  0  0  0  0  0  0  0
   -2.8070   -1.2933   -1.5051 H   0  0  0  0  0  0  0  0  0  0  0  0
   -3.0993   -1.2428    0.2335 H   0  0  0  0  0  0  0  0  0  0  0  0
    1.0208   -2.2172   -1.0160 H   0  0  0  0  0  0  0  0  0  0  0  0
    3.4747   -2.3364   -1.4152 H   0  0  0  0  0  0  0  0  0  0  0  0
   -0.5595    0.1705    1.3413 H   0  0  0  0  0  0  0  0  0  0  0  0
   -0.7699   -1.3249    0.4515 H   0  0  0  0  0  0  0  0  0  0  0  0
   -0.6374    1.4700   -0.8424 H   0  0  0  0  0  0  0  0  0  0  0  0
   -0.8498   -0.0123   -1.7217 H   0  0  0  0  0  0  0  0  0  0  0  0
    1.5752    1.4485    1.2347 H   0  0  0  0  0  0  0  0  0  0  0  0
    6.1442    0.5429    1.1134 H   0  0  0  0  0  0  0  0  0  0  0  0
    5.9420    1.4882   -0.3827 H   0  0  0  0  0  0  0  0  0  0  0  0
  1  3  1  0
  2 13  1  0
  3 13  1  0
  4  5  2  0
  4 10  1  0
  5 11  1  0
  6  7  1  0
  6 10  1  0
  7 13  1  0
  8 10  2  0
  8 12  1  0
  9 14  1  0
  9 15  1  0
 11 12  2  0
 11 14  1  0
 12 15  1  0
  1 16  1  0
  1 17  1  0
  1 18  1  0
  2 19  1  0
  2 20  1  0
  2 21  1  0
  3 22  1  0
  3 23  1  0
  4 24  1  0
  5 25  1  0
  6 26  1  0
  6 27  1  0
  7 28  1  0
  7 29  1  0
  8 30  1  0
  9 31  1  0
  9 32  1  0
M  END
