
     RDKit          3D

 31 32  0  0  0  0  0  0  0  0999 V2000
   -0.6858   -1.3899    0.9662 C   0  0  0  0  0  0  0  0  0  0  0  0
   -3.1724   -1.2725   -0.7144 C   0  0  0  0  0  0  0  0  0  0  0  0
    4.2845   -0.1955    0.1659 C   0  0  0  0  0  0  0  0  0  0  0  0
    3.5746    0.3649    1.2253 C   0  0  0  0  0  0  0  0  0  0  0  0
    3.6402   -0.4554   -1.0413 C   0  0  0  0  0  0  0  0  0  0  0  0
    2.2187    0.6649    1.0789 C   0  0  0  0  0  0  0  0  0  0  0  0
    2.2844   -0.1559   -1.1887 C   0  0  0  0  0  0  0  0  0  0  0  0
   -2.6978    0.8649    0.3253 C   0  0  0  0  0  0  0  0  0  0  0  0
   -1.7260    2.0540    0.3948 C   0  0  0  0  0  0  0  0  0  0  0  0
   -0.8328   -0.5693   -0.3302 C   0  0  0  0  0  0  0  0  0  0  0  0
    1.5533    0.4078   -0.1294 C   0  0  0  0  0  0  0  0  0  0  0  0
    0.0742    0.7095   -0.3147 C   0  0  0  0  0  0  0  0  0  0  0  0
   -2.2349   -0.1597   -0.6284 N   0  0  0  0  0  0  0  0  0  0  0  0
   -0.3885    1.6339    0.6927 O   0  0  0  0  0  0  0  0  0  0  0  0
   -0.9515   -0.8117    1.8565 H   0  0  0  0  0  0  0  0  0  0  0  0
   -1.3061   -2.2912    0.9461 H   0  0  0  0  0  0  0  0  0  0  0  0
    0.3450   -1.7365    1.0930 H   0  0  0  0  0  0  0  0  0  0  0  0
   -3.3683   -1.7420    0.2551 H   0  0  0  0  0  0  0  0  0  0  0  0
   -4.1314   -0.9246   -1.1146 H   0  0  0  0  0  0  0  0  0  0  0  0
   -2.8044   -2.0381   -1.4060 H   0  0  0  0  0  0  0  0  0  0  0  0
    5.3400   -0.4268    0.2809 H   0  0  0  0  0  0  0  0  0  0  0  0
    4.0751    0.5716    2.1675 H   0  0  0  0  0  0  0  0  0  0  0  0
    4.1938   -0.8895   -1.8696 H   0  0  0  0  0  0  0  0  0  0  0  0
    1.6808    1.1026    1.9177 H   0  0  0  0  0  0  0  0  0  0  0  0
    1.7997   -0.3625   -2.1407 H   0  0  0  0  0  0  0  0  0  0  0  0
   -2.8075    0.4320    1.3270 H   0  0  0  0  0  0  0  0  0  0  0  0
   -3.6821    1.2400    0.0214 H   0  0  0  0  0  0  0  0  0  0  0  0
   -2.0403    2.7401    1.1880 H   0  0  0  0  0  0  0  0  0  0  0  0
   -1.7253    2.6181   -0.5458 H   0  0  0  0  0  0  0  0  0  0  0  0
   -0.4968   -1.2067   -1.1589 H   0  0  0  0  0  0  0  0  0  0  0  0
   -0.0124    1.2234   -1.2838 H   0  0  0  0  0  0  0  0  0  0  0  0
  1 10  1  0
  2 13  1  0
  3  4  2  0
  3  5  1  0
  4  6  1  0
  5  7  2  0
  6 11  2  0
  7 11  1  0
  8  9  1  0
  8 13  1  0
  9 14  1  0
 10 12  1  0
 10 13  1  0
 11 12  1  0
 12 14  1  0
  1 15  1  0
  1 16  1  0
  1 17  1  0
  2 18  1  0
  2 19  1  0
  2 20  1  0
  3 21  1  0
  4 22  1  0
  5 23  1  0
  6 24  1  0
  7 25  1  0
  8 26  1  0
  8 27  1  0
  9 28  1  0
  9 29  1  0
 10 30  1  0
 12 31  1  0
M  END
