
     RDKit          3D

 32 33  0  0  0  0  0  0  0  0999 V2000
    1.1344    1.3280   -1.7753 C   0  0  0  0  0  0  0  0  0  0  0  0
    2.3717   -2.0915   -0.8717 C   0  0  0  0  0  0  0  0  0  0  0  0
    3.5264   -0.0468   -0.3721 C   0  0  0  0  0  0  0  0  0  0  0  0
   -2.5127    2.2929    1.0348 C   0  0  0  0  0  0  0  0  0  0  0  0
   -1.1570    1.9326    0.9235 C   0  0  0  0  0  0  0  0  0  0  0  0
   -3.5183    1.3469    0.8282 C   0  0  0  0  0  0  0  0  0  0  0  0
    0.6663    0.2222    0.4727 C   0  0  0  0  0  0  0  0  0  0  0  0
   -3.0318   -2.0359    0.0115 C   0  0  0  0  0  0  0  0  0  0  0  0
    1.1271    0.0035   -0.9927 C   0  0  0  0  0  0  0  0  0  0  0  0
   -0.7827    0.6174    0.6019 C   0  0  0  0  0  0  0  0  0  0  0  0
   -3.1328    0.0616    0.5152 C   0  0  0  0  0  0  0  0  0  0  0  0
   -1.8073   -0.2946    0.4054 C   0  0  0  0  0  0  0  0  0  0  0  0
    2.4481   -0.6560   -1.1482 N   0  0  0  0  0  0  0  0  0  0  0  0
   -3.9751   -0.9808    0.2834 O   0  0  0  0  0  0  0  0  0  0  0  0
   -1.6563   -1.6118    0.0923 O   0  0  0  0  0  0  0  0  0  0  0  0
    1.7436    2.0937   -1.2843 H   0  0  0  0  0  0  0  0  0  0  0  0
    1.5225    1.1813   -2.7898 H   0  0  0  0  0  0  0  0  0  0  0  0
    0.1193    1.7260   -1.8783 H   0  0  0  0  0  0  0  0  0  0  0  0
    1.6114   -2.5693   -1.4994 H   0  0  0  0  0  0  0  0  0  0  0  0
    2.1412   -2.3080    0.1766 H   0  0  0  0  0  0  0  0  0  0  0  0
    3.3229   -2.5778   -1.1166 H   0  0  0  0  0  0  0  0  0  0  0  0
    4.4859   -0.5079   -0.6336 H   0  0  0  0  0  0  0  0  0  0  0  0
    3.3851   -0.1620    0.7080 H   0  0  0  0  0  0  0  0  0  0  0  0
    3.6315    1.0189   -0.5969 H   0  0  0  0  0  0  0  0  0  0  0  0
   -2.7782    3.3179    1.2834 H   0  0  0  0  0  0  0  0  0  0  0  0
   -0.3961    2.6933    1.0875 H   0  0  0  0  0  0  0  0  0  0  0  0
   -4.5662    1.6114    0.9107 H   0  0  0  0  0  0  0  0  0  0  0  0
    0.8077   -0.6928    1.0611 H   0  0  0  0  0  0  0  0  0  0  0  0
    1.2922    0.9834    0.9561 H   0  0  0  0  0  0  0  0  0  0  0  0
   -3.2201   -2.4239   -0.9962 H   0  0  0  0  0  0  0  0  0  0  0  0
   -3.1920   -2.8442    0.7342 H   0  0  0  0  0  0  0  0  0  0  0  0
    0.3893   -0.6280   -1.5061 H   0  0  0  0  0  0  0  0  0  0  0  0
  1  9  1  0
  2 13  1  0
  3 13  1  0
  4  5  2  0
  4  6  1  0
  5 10  1  0
  6 11  2  0
  7  9  1  0
  7 10  1  0
  8 14  1  0
  8 15  1  0
  9 13  1  0
 10 12  2  0
 11 12  1  0
 11 14  1  0
 12 15  1  0
  1 16  1  0
  1 17  1  0
  1 18  1  0
  2 19  1  0
  2 20  1  0
  2 21  1  0
  3 22  1  0
  3 23  1  0
  3 24  1  0
  4 25  1  0
  5 26  1  0
  6 27  1  0
  7 28  1  0
  7 29  1  0
  8 30  1  0
  8 31  1  0
  9 32  1  0
M  END
