
     RDKit          3D

 33 34  0  0  0  0  0  0  0  0999 V2000
    3.1346    1.3337    1.7113 C   0  0  0  0  0  0  0  0  0  0  0  0
   -1.8447   -1.5000    1.9731 C   0  0  0  0  0  0  0  0  0  0  0  0
    2.0992    0.3530    1.1719 C   0  0  0  0  0  0  0  0  0  0  0  0
   -0.2233    0.4029   -2.1707 C   0  0  0  0  0  0  0  0  0  0  0  0
   -1.4349    1.0438   -2.4204 C   0  0  0  0  0  0  0  0  0  0  0  0
    1.2997   -1.0690   -0.8064 C   0  0  0  0  0  0  0  0  0  0  0  0
   -4.3187    0.9066   -0.4311 C   0  0  0  0  0  0  0  0  0  0  0  0
   -0.0486   -0.4063   -1.0214 C   0  0  0  0  0  0  0  0  0  0  0  0
    2.3895   -0.1120   -0.2681 C   0  0  0  0  0  0  0  0  0  0  0  0
   -2.4516    0.8616   -1.5102 C   0  0  0  0  0  0  0  0  0  0  0  0
   -1.1106   -0.5697   -0.1018 C   0  0  0  0  0  0  0  0  0  0  0  0
   -2.3052    0.0806   -0.3812 C   0  0  0  0  0  0  0  0  0  0  0  0
    3.7022   -0.7770   -0.3195 N   0  0  0  0  0  0  0  0  0  0  0  0
   -0.8389   -1.3600    0.9800 O   0  0  0  0  0  0  0  0  0  0  0  0
   -3.6892    1.4188   -1.6168 O   0  0  0  0  0  0  0  0  0  0  0  0
   -3.4555    0.0638    0.3528 O   0  0  0  0  0  0  0  0  0  0  0  0
    2.8359    1.6850    2.7042 H   0  0  0  0  0  0  0  0  0  0  0  0
    4.1203    0.8684    1.8071 H   0  0  0  0  0  0  0  0  0  0  0  0
    3.2250    2.2066    1.0569 H   0  0  0  0  0  0  0  0  0  0  0  0
   -1.4352   -2.1274    2.7711 H   0  0  0  0  0  0  0  0  0  0  0  0
   -2.1019   -0.5338    2.4188 H   0  0  0  0  0  0  0  0  0  0  0  0
   -2.7251   -2.0139    1.5749 H   0  0  0  0  0  0  0  0  0  0  0  0
    1.1241    0.8516    1.2089 H   0  0  0  0  0  0  0  0  0  0  0  0
    2.0393   -0.5109    1.8457 H   0  0  0  0  0  0  0  0  0  0  0  0
    0.5962    0.5312   -2.8758 H   0  0  0  0  0  0  0  0  0  0  0  0
   -1.5746    1.6635   -3.2989 H   0  0  0  0  0  0  0  0  0  0  0  0
    1.2062   -1.9448   -0.1521 H   0  0  0  0  0  0  0  0  0  0  0  0
    1.6176   -1.4780   -1.7762 H   0  0  0  0  0  0  0  0  0  0  0  0
   -5.2027    0.3283   -0.7233 H   0  0  0  0  0  0  0  0  0  0  0  0
   -4.6421    1.7507    0.1888 H   0  0  0  0  0  0  0  0  0  0  0  0
    2.4461    0.7721   -0.9148 H   0  0  0  0  0  0  0  0  0  0  0  0
    3.8773   -1.1215   -1.2625 H   0  0  0  0  0  0  0  0  0  0  0  0
    3.6897   -1.5981    0.2855 H   0  0  0  0  0  0  0  0  0  0  0  0
  1  3  1  0
  2 14  1  0
  3  9  1  0
  4  5  2  0
  4  8  1  0
  5 10  1  0
  6  8  1  0
  6  9  1  0
  7 15  1  0
  7 16  1  0
  8 11  2  0
  9 13  1  0
 10 12  2  0
 10 15  1  0
 11 12  1  0
 11 14  1  0
 12 16  1  0
  1 17  1  0
  1 18  1  0
  1 19  1  0
  2 20  1  0
  2 21  1  0
  2 22  1  0
  3 23  1  0
  3 24  1  0
  4 25  1  0
  5 26  1  0
  6 27  1  0
  6 28  1  0
  7 29  1  0
  7 30  1  0
  9 31  1  0
 13 32  1  0
 13 33  1  0
M  END
