
     RDKit          3D

 34 35  0  0  0  0  0  0  0  0999 V2000
    4.2425    0.8032    0.2513 C   0  0  0  0  0  0  0  0  0  0  0  0
   -2.6221    2.6023    0.8187 C   0  0  0  0  0  0  0  0  0  0  0  0
   -4.1038   -1.4997   -0.8515 C   0  0  0  0  0  0  0  0  0  0  0  0
    1.9131    0.5621   -0.6902 C   0  0  0  0  0  0  0  0  0  0  0  0
   -0.5373    0.9391   -0.1361 C   0  0  0  0  0  0  0  0  0  0  0  0
    0.2641   -3.4613   -0.5335 C   0  0  0  0  0  0  0  0  0  0  0  0
    2.7556    0.7035    0.5946 C   0  0  0  0  0  0  0  0  0  0  0  0
    0.5178    0.0544   -0.4296 C   0  0  0  0  0  0  0  0  0  0  0  0
   -1.8388    0.4662    0.1262 C   0  0  0  0  0  0  0  0  0  0  0  0
    0.2247   -1.2994   -0.4369 C   0  0  0  0  0  0  0  0  0  0  0  0
   -2.0938   -0.9134    0.0683 C   0  0  0  0  0  0  0  0  0  0  0  0
   -1.0442   -1.7733   -0.1963 C   0  0  0  0  0  0  0  0  0  0  0  0
    2.3619    1.8939    1.3634 N   0  0  0  0  0  0  0  0  0  0  0  0
   -2.9119    1.2695    0.4185 O   0  0  0  0  0  0  0  0  0  0  0  0
   -3.3362   -1.4179    0.3475 O   0  0  0  0  0  0  0  0  0  0  0  0
    1.1133   -2.3053   -0.6732 O   0  0  0  0  0  0  0  0  0  0  0  0
   -1.1094   -3.1329   -0.2606 O   0  0  0  0  0  0  0  0  0  0  0  0
    4.8506    0.8985    1.1579 H   0  0  0  0  0  0  0  0  0  0  0  0
    4.5777   -0.0961   -0.2767 H   0  0  0  0  0  0  0  0  0  0  0  0
    4.4506    1.6674   -0.3895 H   0  0  0  0  0  0  0  0  0  0  0  0
   -3.5536    3.0543    1.1731 H   0  0  0  0  0  0  0  0  0  0  0  0
   -1.9048    2.6269    1.6462 H   0  0  0  0  0  0  0  0  0  0  0  0
   -2.2681    3.1958   -0.0302 H   0  0  0  0  0  0  0  0  0  0  0  0
   -5.0876   -1.9024   -0.5925 H   0  0  0  0  0  0  0  0  0  0  0  0
   -4.2514   -0.5118   -1.3014 H   0  0  0  0  0  0  0  0  0  0  0  0
   -3.6401   -2.1805   -1.5741 H   0  0  0  0  0  0  0  0  0  0  0  0
    1.8616    1.5192   -1.2269 H   0  0  0  0  0  0  0  0  0  0  0  0
    2.4095   -0.1265   -1.3868 H   0  0  0  0  0  0  0  0  0  0  0  0
   -0.3151    2.0020   -0.1089 H   0  0  0  0  0  0  0  0  0  0  0  0
    0.3082   -4.0413   -1.4624 H   0  0  0  0  0  0  0  0  0  0  0  0
    0.6477   -4.0815    0.2850 H   0  0  0  0  0  0  0  0  0  0  0  0
    2.6077   -0.1775    1.2309 H   0  0  0  0  0  0  0  0  0  0  0  0
    2.8999    1.9266    2.2292 H   0  0  0  0  0  0  0  0  0  0  0  0
    2.6117    2.7359    0.8464 H   0  0  0  0  0  0  0  0  0  0  0  0
  1  7  1  0
  2 14  1  0
  3 15  1  0
  4  7  1  0
  4  8  1  0
  5  8  2  0
  5  9  1  0
  6 16  1  0
  6 17  1  0
  7 13  1  0
  8 10  1  0
  9 11  2  0
  9 14  1  0
 10 12  2  0
 10 16  1  0
 11 12  1  0
 11 15  1  0
 12 17  1  0
  1 18  1  0
  1 19  1  0
  1 20  1  0
  2 21  1  0
  2 22  1  0
  2 23  1  0
  3 24  1  0
  3 25  1  0
  3 26  1  0
  4 27  1  0
  4 28  1  0
  5 29  1  0
  6 30  1  0
  6 31  1  0
  7 32  1  0
 13 33  1  0
 13 34  1  0
M  END
