
     RDKit          3D

 32 32  0  0  0  0  0  0  0  0999 V2000
   -4.1244    0.6710    0.6193 C   0  0  0  0  0  0  0  0  0  0  0  0
   -0.0117    1.9002   -1.9521 C   0  0  0  0  0  0  0  0  0  0  0  0
   -0.2688   -2.5074    0.6719 C   0  0  0  0  0  0  0  0  0  0  0  0
    2.5704    0.9856    0.5639 C   0  0  0  0  0  0  0  0  0  0  0  0
   -2.0081    1.2116   -0.6265 C   0  0  0  0  0  0  0  0  0  0  0  0
   -2.1234   -0.8513    0.5963 C   0  0  0  0  0  0  0  0  0  0  0  0
    1.3523   -0.6122   -1.0272 C   0  0  0  0  0  0  0  0  0  0  0  0
   -2.7194    0.3483    0.2069 C   0  0  0  0  0  0  0  0  0  0  0  0
   -0.6975    0.9148   -1.0413 C   0  0  0  0  0  0  0  0  0  0  0  0
   -0.8212   -1.1912    0.1866 C   0  0  0  0  0  0  0  0  0  0  0  0
    2.3940   -0.4622    0.1050 C   0  0  0  0  0  0  0  0  0  0  0  0
   -0.0794   -0.2897   -0.6185 C   0  0  0  0  0  0  0  0  0  0  0  0
    3.6936   -0.9809   -0.3512 N   0  0  0  0  0  0  0  0  0  0  0  0
   -4.3533    0.2390    1.5992 H   0  0  0  0  0  0  0  0  0  0  0  0
   -4.2691    1.7535    0.7011 H   0  0  0  0  0  0  0  0  0  0  0  0
   -4.8310    0.2742   -0.1162 H   0  0  0  0  0  0  0  0  0  0  0  0
    0.1885    1.4405   -2.9251 H   0  0  0  0  0  0  0  0  0  0  0  0
    0.9229    2.2531   -1.5088 H   0  0  0  0  0  0  0  0  0  0  0  0
   -0.6332    2.7842   -2.1322 H   0  0  0  0  0  0  0  0  0  0  0  0
   -1.0782   -3.2082    0.9066 H   0  0  0  0  0  0  0  0  0  0  0  0
    0.3206   -2.3573    1.5809 H   0  0  0  0  0  0  0  0  0  0  0  0
    0.3452   -2.9979   -0.0875 H   0  0  0  0  0  0  0  0  0  0  0  0
    2.8978    1.6313   -0.2581 H   0  0  0  0  0  0  0  0  0  0  0  0
    3.3208    1.0537    1.3599 H   0  0  0  0  0  0  0  0  0  0  0  0
    1.6365    1.3901    0.9666 H   0  0  0  0  0  0  0  0  0  0  0  0
   -2.4821    2.1338   -0.9589 H   0  0  0  0  0  0  0  0  0  0  0  0
   -2.6835   -1.5400    1.2272 H   0  0  0  0  0  0  0  0  0  0  0  0
    1.6601   -0.0012   -1.8836 H   0  0  0  0  0  0  0  0  0  0  0  0
    1.3708   -1.6368   -1.4207 H   0  0  0  0  0  0  0  0  0  0  0  0
    2.0948   -1.0587    0.9716 H   0  0  0  0  0  0  0  0  0  0  0  0
    4.0363   -0.4127   -1.1256 H   0  0  0  0  0  0  0  0  0  0  0  0
    4.3796   -0.8772    0.3961 H   0  0  0  0  0  0  0  0  0  0  0  0
  1  8  1  0
  2  9  1  0
  3 10  1  0
  4 11  1  0
  5  8  2  0
  5  9  1  0
  6  8  1  0
  6 10  2  0
  7 11  1  0
  7 12  1  0
  9 12  2  0
 10 12  1  0
 11 13  1  0
  1 14  1  0
  1 15  1  0
  1 16  1  0
  2 17  1  0
  2 18  1  0
  2 19  1  0
  3 20  1  0
  3 21  1  0
  3 22  1  0
  4 23  1  0
  4 24  1  0
  4 25  1  0
  5 26  1  0
  6 27  1  0
  7 28  1  0
  7 29  1  0
 11 30  1  0
 13 31  1  0
 13 32  1  0
M  END
