
     RDKit          3D

 31 31  0  0  0  0  0  0  0  0999 V2000
    2.5458    1.9885    0.0838 C   0  0  0  0  0  0  0  0  0  0  0  0
   -1.3532   -1.5262    1.8710 C   0  0  0  0  0  0  0  0  0  0  0  0
    1.8426   -2.1044   -1.4491 C   0  0  0  0  0  0  0  0  0  0  0  0
    2.0647    0.7797   -0.7054 C   0  0  0  0  0  0  0  0  0  0  0  0
   -3.0232    1.7499    0.9374 C   0  0  0  0  0  0  0  0  0  0  0  0
   -2.6393    1.9228   -0.3880 C   0  0  0  0  0  0  0  0  0  0  0  0
   -2.5840    0.6341    1.6531 C   0  0  0  0  0  0  0  0  0  0  0  0
   -1.7994    0.9883   -0.9906 C   0  0  0  0  0  0  0  0  0  0  0  0
   -1.7503   -0.3297    1.0575 C   0  0  0  0  0  0  0  0  0  0  0  0
    0.9529   -1.4109   -0.4139 C   0  0  0  0  0  0  0  0  0  0  0  0
   -1.3300   -0.1221   -0.2686 C   0  0  0  0  0  0  0  0  0  0  0  0
   -0.4172   -1.0374   -1.0116 C   0  0  0  0  0  0  0  0  0  0  0  0
    1.6143   -0.2547    0.2272 N   0  0  0  0  0  0  0  0  0  0  0  0
   -0.8027   -1.4631   -2.1021 O   0  0  0  0  0  0  0  0  0  0  0  0
    2.8857    2.7735   -0.5994 H   0  0  0  0  0  0  0  0  0  0  0  0
    1.7414    2.4037    0.7007 H   0  0  0  0  0  0  0  0  0  0  0  0
    3.3831    1.7278    0.7401 H   0  0  0  0  0  0  0  0  0  0  0  0
   -0.3597   -1.3803    2.3044 H   0  0  0  0  0  0  0  0  0  0  0  0
   -2.0577   -1.6952    2.6932 H   0  0  0  0  0  0  0  0  0  0  0  0
   -1.3664   -2.4357    1.2624 H   0  0  0  0  0  0  0  0  0  0  0  0
    1.3882   -3.0485   -1.7707 H   0  0  0  0  0  0  0  0  0  0  0  0
    2.8273   -2.3387   -1.0303 H   0  0  0  0  0  0  0  0  0  0  0  0
    1.9823   -1.4936   -2.3475 H   0  0  0  0  0  0  0  0  0  0  0  0
    2.8908    0.4132   -1.3240 H   0  0  0  0  0  0  0  0  0  0  0  0
    1.2574    1.0983   -1.3721 H   0  0  0  0  0  0  0  0  0  0  0  0
   -3.6744    2.4783    1.4143 H   0  0  0  0  0  0  0  0  0  0  0  0
   -2.9908    2.7826   -0.9519 H   0  0  0  0  0  0  0  0  0  0  0  0
   -2.9101    0.5139    2.6847 H   0  0  0  0  0  0  0  0  0  0  0  0
   -1.5013    1.1273   -2.0280 H   0  0  0  0  0  0  0  0  0  0  0  0
    0.7624   -2.1532    0.3676 H   0  0  0  0  0  0  0  0  0  0  0  0
    2.4208   -0.5882    0.7558 H   0  0  0  0  0  0  0  0  0  0  0  0
  1  4  1  0
  2  9  1  0
  3 10  1  0
  4 13  1  0
  5  6  2  0
  5  7  1  0
  6  8  1  0
  7  9  2  0
  8 11  2  0
  9 11  1  0
 10 12  1  0
 10 13  1  0
 11 12  1  0
 12 14  2  0
  1 15  1  0
  1 16  1  0
  1 17  1  0
  2 18  1  0
  2 19  1  0
  2 20  1  0
  3 21  1  0
  3 22  1  0
  3 23  1  0
  4 24  1  0
  4 25  1  0
  5 26  1  0
  6 27  1  0
  7 28  1  0
  8 29  1  0
 10 30  1  0
 13 31  1  0
M  END
