
     RDKit          3D

 33 33  0  0  0  0  0  0  0  0999 V2000
   -5.1297   -1.0033   -0.7538 C   0  0  0  0  0  0  0  0  0  0  0  0
    3.6467   -1.2829   -0.7365 C   0  0  0  0  0  0  0  0  0  0  0  0
   -4.8333   -0.4286    0.6243 C   0  0  0  0  0  0  0  0  0  0  0  0
    0.8688   -0.0114    1.1888 C   0  0  0  0  0  0  0  0  0  0  0  0
    0.7367    1.4354   -0.7338 C   0  0  0  0  0  0  0  0  0  0  0  0
   -0.5203   -0.1819    1.1603 C   0  0  0  0  0  0  0  0  0  0  0  0
   -0.6492    1.2633   -0.7592 C   0  0  0  0  0  0  0  0  0  0  0  0
   -3.3439   -0.4645    0.9614 C   0  0  0  0  0  0  0  0  0  0  0  0
    3.0101    0.9747    0.2700 C   0  0  0  0  0  0  0  0  0  0  0  0
    3.7480    0.2372   -0.8681 C   0  0  0  0  0  0  0  0  0  0  0  0
    1.5103    0.7970    0.2421 C   0  0  0  0  0  0  0  0  0  0  0  0
   -1.2856    0.4547    0.1843 C   0  0  0  0  0  0  0  0  0  0  0  0
    5.1718    0.6028   -0.8790 N   0  0  0  0  0  0  0  0  0  0  0  0
   -2.6433    0.3740    0.0439 O   0  0  0  0  0  0  0  0  0  0  0  0
   -4.6381   -0.4241   -1.5417 H   0  0  0  0  0  0  0  0  0  0  0  0
   -4.7893   -2.0412   -0.8264 H   0  0  0  0  0  0  0  0  0  0  0  0
   -6.2072   -0.9854   -0.9459 H   0  0  0  0  0  0  0  0  0  0  0  0
    4.0324   -1.6300    0.2287 H   0  0  0  0  0  0  0  0  0  0  0  0
    2.6090   -1.6194   -0.8273 H   0  0  0  0  0  0  0  0  0  0  0  0
    4.2178   -1.7829   -1.5272 H   0  0  0  0  0  0  0  0  0  0  0  0
   -5.1912    0.6072    0.6528 H   0  0  0  0  0  0  0  0  0  0  0  0
   -5.3897   -0.9954    1.3788 H   0  0  0  0  0  0  0  0  0  0  0  0
    1.4460   -0.5201    1.9580 H   0  0  0  0  0  0  0  0  0  0  0  0
    1.2044    2.0720   -1.4813 H   0  0  0  0  0  0  0  0  0  0  0  0
   -0.9699   -0.8178    1.9151 H   0  0  0  0  0  0  0  0  0  0  0  0
   -1.2393    1.7643   -1.5227 H   0  0  0  0  0  0  0  0  0  0  0  0
   -3.2087   -0.0911    1.9836 H   0  0  0  0  0  0  0  0  0  0  0  0
   -2.9785   -1.4963    0.8926 H   0  0  0  0  0  0  0  0  0  0  0  0
    3.2170    2.0522    0.2104 H   0  0  0  0  0  0  0  0  0  0  0  0
    3.4046    0.6533    1.2434 H   0  0  0  0  0  0  0  0  0  0  0  0
    3.3248    0.5290   -1.8364 H   0  0  0  0  0  0  0  0  0  0  0  0
    5.2658    1.6148   -0.9576 H   0  0  0  0  0  0  0  0  0  0  0  0
    5.6027    0.3445    0.0081 H   0  0  0  0  0  0  0  0  0  0  0  0
  1  3  1  0
  2 10  1  0
  3  8  1  0
  4  6  2  0
  4 11  1  0
  5  7  1  0
  5 11  2  0
  6 12  1  0
  7 12  2  0
  8 14  1  0
  9 10  1  0
  9 11  1  0
 10 13  1  0
 12 14  1  0
  1 15  1  0
  1 16  1  0
  1 17  1  0
  2 18  1  0
  2 19  1  0
  2 20  1  0
  3 21  1  0
  3 22  1  0
  4 23  1  0
  5 24  1  0
  6 25  1  0
  7 26  1  0
  8 27  1  0
  8 28  1  0
  9 29  1  0
  9 30  1  0
 10 31  1  0
 13 32  1  0
 13 33  1  0
M  END
