
     RDKit          3D

 33 33  0  0  0  0  0  0  0  0999 V2000
   -4.3564    0.9756    1.0033 C   0  0  0  0  0  0  0  0  0  0  0  0
    1.8773    0.5101   -1.4056 C   0  0  0  0  0  0  0  0  0  0  0  0
    4.5034    0.9444    0.1688 C   0  0  0  0  0  0  0  0  0  0  0  0
   -1.6443   -2.1046   -2.1390 C   0  0  0  0  0  0  0  0  0  0  0  0
   -1.9933    0.9455    1.8602 C   0  0  0  0  0  0  0  0  0  0  0  0
   -0.6672    0.5246    1.7718 C   0  0  0  0  0  0  0  0  0  0  0  0
   -2.5254   -0.3551   -0.1034 C   0  0  0  0  0  0  0  0  0  0  0  0
    1.2012   -0.7650    0.6933 C   0  0  0  0  0  0  0  0  0  0  0  0
   -2.9355    0.4991    0.9317 C   0  0  0  0  0  0  0  0  0  0  0  0
    2.1408    0.3084    0.0916 C   0  0  0  0  0  0  0  0  0  0  0  0
   -0.2548   -0.3441    0.7478 C   0  0  0  0  0  0  0  0  0  0  0  0
   -1.1956   -0.7844   -0.2009 C   0  0  0  0  0  0  0  0  0  0  0  0
    3.5308   -0.1250    0.3357 N   0  0  0  0  0  0  0  0  0  0  0  0
   -0.7162   -1.6133   -1.1816 O   0  0  0  0  0  0  0  0  0  0  0  0
   -5.0448    0.2044    0.6419 H   0  0  0  0  0  0  0  0  0  0  0  0
   -4.6411    1.2059    2.0354 H   0  0  0  0  0  0  0  0  0  0  0  0
   -4.4800    1.8759    0.3936 H   0  0  0  0  0  0  0  0  0  0  0  0
    2.0208   -0.4205   -1.9657 H   0  0  0  0  0  0  0  0  0  0  0  0
    2.5409    1.2675   -1.8342 H   0  0  0  0  0  0  0  0  0  0  0  0
    0.8548    0.8575   -1.5831 H   0  0  0  0  0  0  0  0  0  0  0  0
    4.2752    1.7956    0.8183 H   0  0  0  0  0  0  0  0  0  0  0  0
    4.5666    1.2894   -0.8670 H   0  0  0  0  0  0  0  0  0  0  0  0
    5.4944    0.5759    0.4525 H   0  0  0  0  0  0  0  0  0  0  0  0
   -2.0712   -1.2874   -2.7297 H   0  0  0  0  0  0  0  0  0  0  0  0
   -1.0999   -2.7602   -2.8254 H   0  0  0  0  0  0  0  0  0  0  0  0
   -2.4279   -2.7017   -1.6611 H   0  0  0  0  0  0  0  0  0  0  0  0
   -2.2841    1.6223    2.6604 H   0  0  0  0  0  0  0  0  0  0  0  0
    0.0510    0.8776    2.5094 H   0  0  0  0  0  0  0  0  0  0  0  0
   -3.2702   -0.6713   -0.8267 H   0  0  0  0  0  0  0  0  0  0  0  0
    1.5138   -0.9885    1.7237 H   0  0  0  0  0  0  0  0  0  0  0  0
    1.3115   -1.7154    0.1554 H   0  0  0  0  0  0  0  0  0  0  0  0
    1.9643    1.2572    0.6144 H   0  0  0  0  0  0  0  0  0  0  0  0
    3.7608   -0.9002   -0.2858 H   0  0  0  0  0  0  0  0  0  0  0  0
  1  9  1  0
  2 10  1  0
  3 13  1  0
  4 14  1  0
  5  6  2  0
  5  9  1  0
  6 11  1  0
  7  9  2  0
  7 12  1  0
  8 10  1  0
  8 11  1  0
 10 13  1  0
 11 12  2  0
 12 14  1  0
  1 15  1  0
  1 16  1  0
  1 17  1  0
  2 18  1  0
  2 19  1  0
  2 20  1  0
  3 21  1  0
  3 22  1  0
  3 23  1  0
  4 24  1  0
  4 25  1  0
  4 26  1  0
  5 27  1  0
  6 28  1  0
  7 29  1  0
  8 30  1  0
  8 31  1  0
 10 32  1  0
 13 33  1  0
M  END
