
     RDKit          3D

 34 34  0  0  0  0  0  0  0  0999 V2000
   -1.7207    2.2048    1.5672 C   0  0  0  0  0  0  0  0  0  0  0  0
   -2.7333   -0.9956   -1.2642 C   0  0  0  0  0  0  0  0  0  0  0  0
    3.0368    1.0110    1.9037 C   0  0  0  0  0  0  0  0  0  0  0  0
   -1.8931    1.1737    0.4600 C   0  0  0  0  0  0  0  0  0  0  0  0
    0.6341   -1.1813   -1.9559 C   0  0  0  0  0  0  0  0  0  0  0  0
    1.6957   -0.4489   -2.4867 C   0  0  0  0  0  0  0  0  0  0  0  0
   -0.7375   -2.0026    0.0036 C   0  0  0  0  0  0  0  0  0  0  0  0
    1.2894   -0.5098    0.2752 C   0  0  0  0  0  0  0  0  0  0  0  0
   -2.1077   -1.2794    0.1057 C   0  0  0  0  0  0  0  0  0  0  0  0
    0.4160   -1.2150   -0.5730 C   0  0  0  0  0  0  0  0  0  0  0  0
    2.5454    0.2531   -1.6327 C   0  0  0  0  0  0  0  0  0  0  0  0
    2.3537    0.2338   -0.2451 C   0  0  0  0  0  0  0  0  0  0  0  0
   -2.1192   -0.1446    1.0455 N   0  0  0  0  0  0  0  0  0  0  0  0
    3.5857    0.9761   -2.1546 O   0  0  0  0  0  0  0  0  0  0  0  0
    3.2455    0.9591    0.5004 O   0  0  0  0  0  0  0  0  0  0  0  0
   -2.6042    2.2445    2.2134 H   0  0  0  0  0  0  0  0  0  0  0  0
   -0.8486    1.9767    2.1894 H   0  0  0  0  0  0  0  0  0  0  0  0
   -1.5744    3.2000    1.1352 H   0  0  0  0  0  0  0  0  0  0  0  0
   -2.1604   -0.2664   -1.8448 H   0  0  0  0  0  0  0  0  0  0  0  0
   -3.7538   -0.6126   -1.1521 H   0  0  0  0  0  0  0  0  0  0  0  0
   -2.7952   -1.9164   -1.8548 H   0  0  0  0  0  0  0  0  0  0  0  0
    3.8121    1.6522    2.3340 H   0  0  0  0  0  0  0  0  0  0  0  0
    2.0659    1.4570    2.1440 H   0  0  0  0  0  0  0  0  0  0  0  0
    3.1392    0.0184    2.3545 H   0  0  0  0  0  0  0  0  0  0  0  0
   -1.0018    1.1927   -0.1727 H   0  0  0  0  0  0  0  0  0  0  0  0
   -2.7517    1.4686   -0.1528 H   0  0  0  0  0  0  0  0  0  0  0  0
   -0.0231   -1.7263   -2.6300 H   0  0  0  0  0  0  0  0  0  0  0  0
    1.8440   -0.4358   -3.5617 H   0  0  0  0  0  0  0  0  0  0  0  0
   -0.8623   -2.9191   -0.5896 H   0  0  0  0  0  0  0  0  0  0  0  0
   -0.4504   -2.3595    1.0028 H   0  0  0  0  0  0  0  0  0  0  0  0
    1.1124   -0.5531    1.3447 H   0  0  0  0  0  0  0  0  0  0  0  0
   -2.7716   -2.0190    0.5746 H   0  0  0  0  0  0  0  0  0  0  0  0
   -1.4536   -0.3139    1.7974 H   0  0  0  0  0  0  0  0  0  0  0  0
    3.5864    0.8779   -3.1187 H   0  0  0  0  0  0  0  0  0  0  0  0
  1  4  1  0
  2  9  1  0
  3 15  1  0
  4 13  1  0
  5  6  2  0
  5 10  1  0
  6 11  1  0
  7  9  1  0
  7 10  1  0
  8 10  2  0
  8 12  1  0
  9 13  1  0
 11 12  2  0
 11 14  1  0
 12 15  1  0
  1 16  1  0
  1 17  1  0
  1 18  1  0
  2 19  1  0
  2 20  1  0
  2 21  1  0
  3 22  1  0
  3 23  1  0
  3 24  1  0
  4 25  1  0
  4 26  1  0
  5 27  1  0
  6 28  1  0
  7 29  1  0
  7 30  1  0
  8 31  1  0
  9 32  1  0
 13 33  1  0
 14 34  1  0
M  END
