
     RDKit          3D

 34 34  0  0  0  0  0  0  0  0999 V2000
   -0.9761    1.9763    0.2724 C   0  0  0  0  0  0  0  0  0  0  0  0
   -3.1846   -1.0812   -0.2764 C   0  0  0  0  0  0  0  0  0  0  0  0
   -2.9507    0.9372   -1.5181 C   0  0  0  0  0  0  0  0  0  0  0  0
    4.0194    1.7795    0.3223 C   0  0  0  0  0  0  0  0  0  0  0  0
    2.9281   -1.4662   -0.8699 C   0  0  0  0  0  0  0  0  0  0  0  0
    1.8342   -2.3302   -0.8358 C   0  0  0  0  0  0  0  0  0  0  0  0
   -0.6306   -0.3180    1.3034 C   0  0  0  0  0  0  0  0  0  0  0  0
    1.7350    0.1066    0.5103 C   0  0  0  0  0  0  0  0  0  0  0  0
   -1.6389    0.6135    0.5543 C   0  0  0  0  0  0  0  0  0  0  0  0
    0.6106   -0.7428    0.5423 C   0  0  0  0  0  0  0  0  0  0  0  0
    2.8877   -0.2455   -0.1968 C   0  0  0  0  0  0  0  0  0  0  0  0
    0.6883   -1.9677   -0.1287 C   0  0  0  0  0  0  0  0  0  0  0  0
   -2.2505   -0.0109   -0.6490 N   0  0  0  0  0  0  0  0  0  0  0  0
   -0.3630   -2.8373   -0.0668 O   0  0  0  0  0  0  0  0  0  0  0  0
    4.0283    0.5024   -0.3024 O   0  0  0  0  0  0  0  0  0  0  0  0
   -1.7218    2.7352    0.0118 H   0  0  0  0  0  0  0  0  0  0  0  0
   -0.2532    1.9171   -0.5478 H   0  0  0  0  0  0  0  0  0  0  0  0
   -0.4559    2.3487    1.1618 H   0  0  0  0  0  0  0  0  0  0  0  0
   -2.7101   -1.8587    0.3259 H   0  0  0  0  0  0  0  0  0  0  0  0
   -3.5636   -1.5861   -1.1727 H   0  0  0  0  0  0  0  0  0  0  0  0
   -4.0428   -0.6950    0.2860 H   0  0  0  0  0  0  0  0  0  0  0  0
   -3.7262    1.4939   -0.9801 H   0  0  0  0  0  0  0  0  0  0  0  0
   -2.2542    1.6472   -1.9756 H   0  0  0  0  0  0  0  0  0  0  0  0
   -3.4266    0.4160   -2.3574 H   0  0  0  0  0  0  0  0  0  0  0  0
    3.9130    1.6862    1.4081 H   0  0  0  0  0  0  0  0  0  0  0  0
    3.2382    2.4211   -0.0990 H   0  0  0  0  0  0  0  0  0  0  0  0
    4.9841    2.2558    0.1227 H   0  0  0  0  0  0  0  0  0  0  0  0
    3.8224   -1.7486   -1.4194 H   0  0  0  0  0  0  0  0  0  0  0  0
    1.8985   -3.2815   -1.3540 H   0  0  0  0  0  0  0  0  0  0  0  0
   -0.3016    0.1959    2.2184 H   0  0  0  0  0  0  0  0  0  0  0  0
   -1.1482   -1.2064    1.6843 H   0  0  0  0  0  0  0  0  0  0  0  0
    1.6845    1.0456    1.0510 H   0  0  0  0  0  0  0  0  0  0  0  0
   -2.4472    0.8280    1.2690 H   0  0  0  0  0  0  0  0  0  0  0  0
   -0.2266   -3.5300   -0.7324 H   0  0  0  0  0  0  0  0  0  0  0  0
  1  9  1  0
  2 13  1  0
  3 13  1  0
  4 15  1  0
  5  6  2  0
  5 11  1  0
  6 12  1  0
  7  9  1  0
  7 10  1  0
  8 10  1  0
  8 11  2  0
  9 13  1  0
 10 12  2  0
 11 15  1  0
 12 14  1  0
  1 16  1  0
  1 17  1  0
  1 18  1  0
  2 19  1  0
  2 20  1  0
  2 21  1  0
  3 22  1  0
  3 23  1  0
  3 24  1  0
  4 25  1  0
  4 26  1  0
  4 27  1  0
  5 28  1  0
  6 29  1  0
  7 30  1  0
  7 31  1  0
  8 32  1  0
  9 33  1  0
 14 34  1  0
M  END
