
     RDKit          3D

 34 34  0  0  0  0  0  0  0  0999 V2000
   -4.3062   -1.0056   -0.7979 C   0  0  0  0  0  0  0  0  0  0  0  0
   -4.8771    1.3483   -0.1611 C   0  0  0  0  0  0  0  0  0  0  0  0
    2.8700   -0.7447   -1.2735 C   0  0  0  0  0  0  0  0  0  0  0  0
    4.1858   -0.3291   -1.4867 C   0  0  0  0  0  0  0  0  0  0  0  0
    0.8611   -1.1001    0.2190 C   0  0  0  0  0  0  0  0  0  0  0  0
   -0.1268    0.0322   -0.0912 C   0  0  0  0  0  0  0  0  0  0  0  0
    3.0501   -0.1597    1.0745 C   0  0  0  0  0  0  0  0  0  0  0  0
   -2.4639    0.6444   -0.1817 C   0  0  0  0  0  0  0  0  0  0  0  0
   -3.9113    0.1856    0.0790 C   0  0  0  0  0  0  0  0  0  0  0  0
    2.2930   -0.6673    0.0062 C   0  0  0  0  0  0  0  0  0  0  0  0
    4.9202    0.1652   -0.4204 C   0  0  0  0  0  0  0  0  0  0  0  0
    4.3607    0.2504    0.8516 C   0  0  0  0  0  0  0  0  0  0  0  0
   -1.5043   -0.4146    0.1388 N   0  0  0  0  0  0  0  0  0  0  0  0
    6.2070    0.5725   -0.6280 O   0  0  0  0  0  0  0  0  0  0  0  0
    5.1430    0.7488    1.8573 O   0  0  0  0  0  0  0  0  0  0  0  0
   -4.2037   -0.7659   -1.8618 H   0  0  0  0  0  0  0  0  0  0  0  0
   -5.3477   -1.2920   -0.6156 H   0  0  0  0  0  0  0  0  0  0  0  0
   -3.6846   -1.8812   -0.5854 H   0  0  0  0  0  0  0  0  0  0  0  0
   -4.8340    1.6934   -1.1998 H   0  0  0  0  0  0  0  0  0  0  0  0
   -5.9083    1.0484    0.0540 H   0  0  0  0  0  0  0  0  0  0  0  0
   -4.6346    2.1960    0.4885 H   0  0  0  0  0  0  0  0  0  0  0  0
    2.2945   -1.1305   -2.1128 H   0  0  0  0  0  0  0  0  0  0  0  0
    4.6319   -0.3905   -2.4745 H   0  0  0  0  0  0  0  0  0  0  0  0
    0.7357   -1.4409    1.2552 H   0  0  0  0  0  0  0  0  0  0  0  0
    0.6506   -1.9730   -0.4127 H   0  0  0  0  0  0  0  0  0  0  0  0
    0.0967    0.9009    0.5409 H   0  0  0  0  0  0  0  0  0  0  0  0
   -0.0071    0.3437   -1.1363 H   0  0  0  0  0  0  0  0  0  0  0  0
    2.6086   -0.0914    2.0639 H   0  0  0  0  0  0  0  0  0  0  0  0
   -2.3583    0.9360   -1.2341 H   0  0  0  0  0  0  0  0  0  0  0  0
   -2.2526    1.5292    0.4317 H   0  0  0  0  0  0  0  0  0  0  0  0
   -4.0054   -0.1162    1.1304 H   0  0  0  0  0  0  0  0  0  0  0  0
   -1.6190   -0.6931    1.1130 H   0  0  0  0  0  0  0  0  0  0  0  0
    6.5113    0.8722    0.2516 H   0  0  0  0  0  0  0  0  0  0  0  0
    4.6248    0.7286    2.6798 H   0  0  0  0  0  0  0  0  0  0  0  0
  1  9  1  0
  2  9  1  0
  3  4  2  0
  3 10  1  0
  4 11  1  0
  5  6  1  0
  5 10  1  0
  6 13  1  0
  7 10  2  0
  7 12  1  0
  8  9  1  0
  8 13  1  0
 11 12  2  0
 11 14  1  0
 12 15  1  0
  1 16  1  0
  1 17  1  0
  1 18  1  0
  2 19  1  0
  2 20  1  0
  2 21  1  0
  3 22  1  0
  4 23  1  0
  5 24  1  0
  5 25  1  0
  6 26  1  0
  6 27  1  0
  7 28  1  0
  8 29  1  0
  8 30  1  0
  9 31  1  0
 13 32  1  0
 14 33  1  0
 15 34  1  0
M  END
