
     RDKit          3D

 35 35  0  0  0  0  0  0  0  0999 V2000
   -2.1791   -1.9602    0.6408 C   0  0  0  0  0  0  0  0  0  0  0  0
   -0.3741    3.3171    1.4786 C   0  0  0  0  0  0  0  0  0  0  0  0
    0.7457   -2.4464   -2.7163 C   0  0  0  0  0  0  0  0  0  0  0  0
    4.2521    0.5314    1.6948 C   0  0  0  0  0  0  0  0  0  0  0  0
   -1.9367    0.1552   -0.7796 C   0  0  0  0  0  0  0  0  0  0  0  0
    1.4654    1.5006    0.3366 C   0  0  0  0  0  0  0  0  0  0  0  0
    1.8367   -0.4218   -1.0815 C   0  0  0  0  0  0  0  0  0  0  0  0
   -2.6292   -0.5134    0.4272 C   0  0  0  0  0  0  0  0  0  0  0  0
    2.3417    0.6064   -0.2821 C   0  0  0  0  0  0  0  0  0  0  0  0
   -0.4318    0.3149   -0.6163 C   0  0  0  0  0  0  0  0  0  0  0  0
    0.0840    1.3611    0.1793 C   0  0  0  0  0  0  0  0  0  0  0  0
    0.4581   -0.5788   -1.2501 C   0  0  0  0  0  0  0  0  0  0  0  0
   -4.0891   -0.4957    0.2316 N   0  0  0  0  0  0  0  0  0  0  0  0
   -0.8454    2.1845    0.7611 O   0  0  0  0  0  0  0  0  0  0  0  0
   -0.1173   -1.5762   -1.9957 O   0  0  0  0  0  0  0  0  0  0  0  0
    4.1114    0.7702   -0.0967 S   0  0  0  0  0  0  0  0  0  0  0  0
   -2.3477   -2.5700   -0.2537 H   0  0  0  0  0  0  0  0  0  0  0  0
   -1.1152   -2.0109    0.8931 H   0  0  0  0  0  0  0  0  0  0  0  0
   -2.7261   -2.4224    1.4706 H   0  0  0  0  0  0  0  0  0  0  0  0
    0.1963    3.0129    2.3622 H   0  0  0  0  0  0  0  0  0  0  0  0
    0.2145    3.9782    0.8340 H   0  0  0  0  0  0  0  0  0  0  0  0
   -1.2464    3.8802    1.8242 H   0  0  0  0  0  0  0  0  0  0  0  0
    1.3592   -1.8917   -3.4339 H   0  0  0  0  0  0  0  0  0  0  0  0
    1.3662   -3.0375   -2.0350 H   0  0  0  0  0  0  0  0  0  0  0  0
    0.1197   -3.1425   -3.2829 H   0  0  0  0  0  0  0  0  0  0  0  0
    3.7712    1.3500    2.2366 H   0  0  0  0  0  0  0  0  0  0  0  0
    5.3101    0.5115    1.9700 H   0  0  0  0  0  0  0  0  0  0  0  0
    3.7982   -0.4182    1.9917 H   0  0  0  0  0  0  0  0  0  0  0  0
   -2.1676   -0.3984   -1.6987 H   0  0  0  0  0  0  0  0  0  0  0  0
   -2.3700    1.1507   -0.9507 H   0  0  0  0  0  0  0  0  0  0  0  0
    1.8815    2.3050    0.9329 H   0  0  0  0  0  0  0  0  0  0  0  0
    2.5416   -1.0955   -1.5576 H   0  0  0  0  0  0  0  0  0  0  0  0
   -2.4122    0.0542    1.3392 H   0  0  0  0  0  0  0  0  0  0  0  0
   -4.5405   -0.9576    1.0196 H   0  0  0  0  0  0  0  0  0  0  0  0
   -4.3252   -1.0469   -0.5930 H   0  0  0  0  0  0  0  0  0  0  0  0
  1  8  1  0
  2 14  1  0
  3 15  1  0
  4 16  1  0
  5  8  1  0
  5 10  1  0
  6  9  2  0
  6 11  1  0
  7  9  1  0
  7 12  2  0
  8 13  1  0
  9 16  1  0
 10 11  2  0
 10 12  1  0
 11 14  1  0
 12 15  1  0
  1 17  1  0
  1 18  1  0
  1 19  1  0
  2 20  1  0
  2 21  1  0
  2 22  1  0
  3 23  1  0
  3 24  1  0
  3 25  1  0
  4 26  1  0
  4 27  1  0
  4 28  1  0
  5 29  1  0
  5 30  1  0
  6 31  1  0
  7 32  1  0
  8 33  1  0
 13 34  1  0
 13 35  1  0
M  END
