
     RDKit          3D

 35 35  0  0  0  0  0  0  0  0999 V2000
   -1.8522   -1.6203    2.2531 C   0  0  0  0  0  0  0  0  0  0  0  0
   -4.0210   -0.5749    1.4972 C   0  0  0  0  0  0  0  0  0  0  0  0
    3.8473    0.7044    1.2070 C   0  0  0  0  0  0  0  0  0  0  0  0
    0.5672   -0.3373   -2.4869 C   0  0  0  0  0  0  0  0  0  0  0  0
    1.7448   -1.0336   -2.7531 C   0  0  0  0  0  0  0  0  0  0  0  0
    1.5649    0.5785   -0.4725 C   0  0  0  0  0  0  0  0  0  0  0  0
   -1.6133    0.6448    0.1486 C   0  0  0  0  0  0  0  0  0  0  0  0
   -2.7764   -1.3503    1.0640 C   0  0  0  0  0  0  0  0  0  0  0  0
    0.4640    0.4760   -1.3472 C   0  0  0  0  0  0  0  0  0  0  0  0
    2.8168   -0.9164   -1.8786 C   0  0  0  0  0  0  0  0  0  0  0  0
   -0.8280    1.2187   -1.0593 C   0  0  0  0  0  0  0  0  0  0  0  0
    2.7464   -0.1160   -0.7336 C   0  0  0  0  0  0  0  0  0  0  0  0
   -2.0740   -0.7350   -0.0705 N   0  0  0  0  0  0  0  0  0  0  0  0
    3.9610   -1.6115   -2.1632 O   0  0  0  0  0  0  0  0  0  0  0  0
   -0.5200    2.5947   -0.8090 O   0  0  0  0  0  0  0  0  0  0  0  0
    3.8825   -0.1005    0.0337 O   0  0  0  0  0  0  0  0  0  0  0  0
   -1.5235   -0.6956    2.7380 H   0  0  0  0  0  0  0  0  0  0  0  0
   -0.9627   -2.1787    1.9414 H   0  0  0  0  0  0  0  0  0  0  0  0
   -2.3700   -2.2219    3.0084 H   0  0  0  0  0  0  0  0  0  0  0  0
   -4.6718   -0.3668    0.6409 H   0  0  0  0  0  0  0  0  0  0  0  0
   -3.7678    0.3761    1.9772 H   0  0  0  0  0  0  0  0  0  0  0  0
   -4.6025   -1.1610    2.2175 H   0  0  0  0  0  0  0  0  0  0  0  0
    3.0805    0.3516    1.9045 H   0  0  0  0  0  0  0  0  0  0  0  0
    4.8176    0.6116    1.7043 H   0  0  0  0  0  0  0  0  0  0  0  0
    3.7010    1.7603    0.9567 H   0  0  0  0  0  0  0  0  0  0  0  0
   -0.2729   -0.4389   -3.1715 H   0  0  0  0  0  0  0  0  0  0  0  0
    1.8272   -1.6645   -3.6332 H   0  0  0  0  0  0  0  0  0  0  0  0
    1.4657    1.2122    0.4041 H   0  0  0  0  0  0  0  0  0  0  0  0
   -0.9848    0.7109    1.0442 H   0  0  0  0  0  0  0  0  0  0  0  0
   -2.4709    1.3051    0.3227 H   0  0  0  0  0  0  0  0  0  0  0  0
   -3.1238   -2.3267    0.7029 H   0  0  0  0  0  0  0  0  0  0  0  0
   -1.4738    1.2044   -1.9459 H   0  0  0  0  0  0  0  0  0  0  0  0
   -1.2683   -1.3163   -0.3107 H   0  0  0  0  0  0  0  0  0  0  0  0
    4.5755   -1.3915   -1.4363 H   0  0  0  0  0  0  0  0  0  0  0  0
    0.1153    2.8646   -1.4951 H   0  0  0  0  0  0  0  0  0  0  0  0
  1  8  1  0
  2  8  1  0
  3 16  1  0
  4  5  2  0
  4  9  1  0
  5 10  1  0
  6  9  2  0
  6 12  1  0
  7 11  1  0
  7 13  1  0
  8 13  1  0
  9 11  1  0
 10 12  2  0
 10 14  1  0
 11 15  1  0
 12 16  1  0
  1 17  1  0
  1 18  1  0
  1 19  1  0
  2 20  1  0
  2 21  1  0
  2 22  1  0
  3 23  1  0
  3 24  1  0
  3 25  1  0
  4 26  1  0
  5 27  1  0
  6 28  1  0
  7 29  1  0
  7 30  1  0
  8 31  1  0
 11 32  1  0
 13 33  1  0
 14 34  1  0
 15 35  1  0
M  END
