
     RDKit          3D

 37 37  0  0  0  0  0  0  0  0999 V2000
    4.3656   -0.4869   -1.3661 C   0  0  0  0  0  0  0  0  0  0  0  0
    1.0386    1.4474    3.1966 C   0  0  0  0  0  0  0  0  0  0  0  0
   -2.7609    0.4701   -2.7532 C   0  0  0  0  0  0  0  0  0  0  0  0
   -3.9644   -1.7431    0.6991 C   0  0  0  0  0  0  0  0  0  0  0  0
    2.1841    0.6306   -0.7911 C   0  0  0  0  0  0  0  0  0  0  0  0
   -0.2262    0.0727   -1.2468 C   0  0  0  0  0  0  0  0  0  0  0  0
   -0.9639    0.6222    1.3869 C   0  0  0  0  0  0  0  0  0  0  0  0
    2.9443   -0.7143   -0.8480 C   0  0  0  0  0  0  0  0  0  0  0  0
    0.7459    0.5067   -0.3278 C   0  0  0  0  0  0  0  0  0  0  0  0
    0.3697    0.7864    1.0006 C   0  0  0  0  0  0  0  0  0  0  0  0
   -1.5591   -0.0685   -0.8605 C   0  0  0  0  0  0  0  0  0  0  0  0
   -1.9194    0.1809    0.4604 C   0  0  0  0  0  0  0  0  0  0  0  0
    3.0008   -1.3832    0.4560 N   0  0  0  0  0  0  0  0  0  0  0  0
   -4.4367    0.7892    0.1431 O   0  0  0  0  0  0  0  0  0  0  0  0
   -3.6179    0.1553    2.4346 O   0  0  0  0  0  0  0  0  0  0  0  0
    1.3730    1.2066    1.8352 O   0  0  0  0  0  0  0  0  0  0  0  0
   -2.4777   -0.5239   -1.7641 O   0  0  0  0  0  0  0  0  0  0  0  0
   -3.5964   -0.0333    0.9933 S   0  0  0  0  0  6  0  0  0  0  0  0
    4.9063   -1.4351   -1.4628 H   0  0  0  0  0  0  0  0  0  0  0  0
    4.3459   -0.0171   -2.3554 H   0  0  0  0  0  0  0  0  0  0  0  0
    4.9385    0.1629   -0.6950 H   0  0  0  0  0  0  0  0  0  0  0  0
    0.6674    0.5376    3.6797 H   0  0  0  0  0  0  0  0  0  0  0  0
    0.3196    2.2683    3.2866 H   0  0  0  0  0  0  0  0  0  0  0  0
    1.9533    1.7492    3.7158 H   0  0  0  0  0  0  0  0  0  0  0  0
   -3.6696    0.1656   -3.2808 H   0  0  0  0  0  0  0  0  0  0  0  0
   -1.9485    0.5297   -3.4845 H   0  0  0  0  0  0  0  0  0  0  0  0
   -2.9423    1.4527   -2.3028 H   0  0  0  0  0  0  0  0  0  0  0  0
   -4.9453   -1.9524    1.1327 H   0  0  0  0  0  0  0  0  0  0  0  0
   -3.2086   -2.3587    1.1909 H   0  0  0  0  0  0  0  0  0  0  0  0
   -3.9958   -1.9446   -0.3711 H   0  0  0  0  0  0  0  0  0  0  0  0
    2.7283    1.3476   -0.1632 H   0  0  0  0  0  0  0  0  0  0  0  0
    2.1791    1.0848   -1.7918 H   0  0  0  0  0  0  0  0  0  0  0  0
    0.0661   -0.1708   -2.2656 H   0  0  0  0  0  0  0  0  0  0  0  0
   -1.2805    0.8303    2.4042 H   0  0  0  0  0  0  0  0  0  0  0  0
    2.4310   -1.3895   -1.5430 H   0  0  0  0  0  0  0  0  0  0  0  0
    3.7462   -2.0758    0.4732 H   0  0  0  0  0  0  0  0  0  0  0  0
    3.2091   -0.6995    1.1843 H   0  0  0  0  0  0  0  0  0  0  0  0
  1  8  1  0
  2 16  1  0
  3 17  1  0
  4 18  1  0
  5  8  1  0
  5  9  1  0
  6  9  2  0
  6 11  1  0
  7 10  2  0
  7 12  1  0
  8 13  1  0
  9 10  1  0
 10 16  1  0
 11 12  2  0
 11 17  1  0
 12 18  1  0
 14 18  2  0
 15 18  2  0
  1 19  1  0
  1 20  1  0
  1 21  1  0
  2 22  1  0
  2 23  1  0
  2 24  1  0
  3 25  1  0
  3 26  1  0
  3 27  1  0
  4 28  1  0
  4 29  1  0
  4 30  1  0
  5 31  1  0
  5 32  1  0
  6 33  1  0
  7 34  1  0
  8 35  1  0
 13 36  1  0
 13 37  1  0
M  END
