
     RDKit          3D

 33 33  0  0  0  0  0  0  0  0999 V2000
    3.3584   -1.3288   -0.5505 C   0  0  0  0  0  0  0  0  0  0  0  0
    5.1540    0.1109    0.4497 C   0  0  0  0  0  0  0  0  0  0  0  0
   -3.0055   -1.6205    0.8033 C   0  0  0  0  0  0  0  0  0  0  0  0
   -0.9171    0.9169   -1.4415 C   0  0  0  0  0  0  0  0  0  0  0  0
   -0.6906    1.1497    0.9492 C   0  0  0  0  0  0  0  0  0  0  0  0
    0.4656    1.0592   -1.5853 C   0  0  0  0  0  0  0  0  0  0  0  0
    0.6923    1.2910    0.8032 C   0  0  0  0  0  0  0  0  0  0  0  0
   -3.0019    0.7967   -0.0163 C   0  0  0  0  0  0  0  0  0  0  0  0
    3.6515   -0.0513    0.2315 C   0  0  0  0  0  0  0  0  0  0  0  0
   -3.5040   -0.6426   -0.2613 C   0  0  0  0  0  0  0  0  0  0  0  0
   -1.5076    0.9567   -0.1719 C   0  0  0  0  0  0  0  0  0  0  0  0
    1.2787    1.2336   -0.4633 C   0  0  0  0  0  0  0  0  0  0  0  0
   -4.9733   -0.6808   -0.2675 N   0  0  0  0  0  0  0  0  0  0  0  0
    3.0384    1.4208   -0.6804 S   0  0  0  0  0  0  0  0  0  0  0  0
    2.2826   -1.4909   -0.6736 H   0  0  0  0  0  0  0  0  0  0  0  0
    3.8201   -1.3132   -1.5442 H   0  0  0  0  0  0  0  0  0  0  0  0
    3.7552   -2.2000   -0.0173 H   0  0  0  0  0  0  0  0  0  0  0  0
    5.5512   -0.7419    1.0117 H   0  0  0  0  0  0  0  0  0  0  0  0
    5.3778    1.0137    1.0290 H   0  0  0  0  0  0  0  0  0  0  0  0
    5.7023    0.1639   -0.4979 H   0  0  0  0  0  0  0  0  0  0  0  0
   -1.9146   -1.7089    0.7793 H   0  0  0  0  0  0  0  0  0  0  0  0
   -3.2978   -1.3026    1.8105 H   0  0  0  0  0  0  0  0  0  0  0  0
   -3.4136   -2.6238    0.6349 H   0  0  0  0  0  0  0  0  0  0  0  0
   -1.5294    0.7784   -2.3301 H   0  0  0  0  0  0  0  0  0  0  0  0
   -1.1236    1.1942    1.9461 H   0  0  0  0  0  0  0  0  0  0  0  0
    0.9017    1.0292   -2.5811 H   0  0  0  0  0  0  0  0  0  0  0  0
    1.3025    1.4555    1.6875 H   0  0  0  0  0  0  0  0  0  0  0  0
   -3.3107    1.1372    0.9813 H   0  0  0  0  0  0  0  0  0  0  0  0
   -3.4844    1.4848   -0.7242 H   0  0  0  0  0  0  0  0  0  0  0  0
    3.1662   -0.1015    1.2118 H   0  0  0  0  0  0  0  0  0  0  0  0
   -3.1606   -0.9945   -1.2412 H   0  0  0  0  0  0  0  0  0  0  0  0
   -5.3314   -0.0282   -0.9639 H   0  0  0  0  0  0  0  0  0  0  0  0
   -5.3324   -0.3628    0.6322 H   0  0  0  0  0  0  0  0  0  0  0  0
  1  9  1  0
  2  9  1  0
  3 10  1  0
  4  6  2  0
  4 11  1  0
  5  7  1  0
  5 11  2  0
  6 12  1  0
  7 12  2  0
  8 10  1  0
  8 11  1  0
  9 14  1  0
 10 13  1  0
 12 14  1  0
  1 15  1  0
  1 16  1  0
  1 17  1  0
  2 18  1  0
  2 19  1  0
  2 20  1  0
  3 21  1  0
  3 22  1  0
  3 23  1  0
  4 24  1  0
  5 25  1  0
  6 26  1  0
  7 27  1  0
  8 28  1  0
  8 29  1  0
  9 30  1  0
 10 31  1  0
 13 32  1  0
 13 33  1  0
M  END
