
     RDKit          3D

 34 34  0  0  0  0  0  0  0  0999 V2000
    2.7152    1.2720   -1.3787 C   0  0  0  0  0  0  0  0  0  0  0  0
    4.2921    0.7894    1.1786 C   0  0  0  0  0  0  0  0  0  0  0  0
   -4.0322   -0.5184    1.7736 C   0  0  0  0  0  0  0  0  0  0  0  0
   -4.4802    0.4672   -0.4493 C   0  0  0  0  0  0  0  0  0  0  0  0
    0.0326   -1.1589    0.6190 C   0  0  0  0  0  0  0  0  0  0  0  0
   -0.3874   -0.1590   -1.5122 C   0  0  0  0  0  0  0  0  0  0  0  0
   -1.2782   -0.8540    1.0150 C   0  0  0  0  0  0  0  0  0  0  0  0
   -1.6966    0.1406   -1.1056 C   0  0  0  0  0  0  0  0  0  0  0  0
    1.9091   -1.1296   -1.0742 C   0  0  0  0  0  0  0  0  0  0  0  0
    2.9885   -0.0775   -0.7047 C   0  0  0  0  0  0  0  0  0  0  0  0
    0.4931   -0.8124   -0.6509 C   0  0  0  0  0  0  0  0  0  0  0  0
   -2.1909   -0.2068    0.1641 C   0  0  0  0  0  0  0  0  0  0  0  0
    3.1205    0.0365    0.7578 N   0  0  0  0  0  0  0  0  0  0  0  0
   -3.4940    0.1123    0.5697 N   0  0  0  0  0  0  0  0  0  0  0  0
    3.5792    1.9395   -1.2957 H   0  0  0  0  0  0  0  0  0  0  0  0
    1.8552    1.7840   -0.9342 H   0  0  0  0  0  0  0  0  0  0  0  0
    2.5162    1.1378   -2.4475 H   0  0  0  0  0  0  0  0  0  0  0  0
    4.2239    1.8458    0.9035 H   0  0  0  0  0  0  0  0  0  0  0  0
    5.2105    0.3659    0.7597 H   0  0  0  0  0  0  0  0  0  0  0  0
    4.3781    0.7400    2.2687 H   0  0  0  0  0  0  0  0  0  0  0  0
   -4.0573   -1.6089    1.6702 H   0  0  0  0  0  0  0  0  0  0  0  0
   -5.0557   -0.1817    1.9737 H   0  0  0  0  0  0  0  0  0  0  0  0
   -3.4496   -0.2446    2.6597 H   0  0  0  0  0  0  0  0  0  0  0  0
   -4.1963    1.3859   -0.9735 H   0  0  0  0  0  0  0  0  0  0  0  0
   -5.4595    0.6697   -0.0009 H   0  0  0  0  0  0  0  0  0  0  0  0
   -4.6105   -0.3455   -1.1725 H   0  0  0  0  0  0  0  0  0  0  0  0
    0.6928   -1.6660    1.3201 H   0  0  0  0  0  0  0  0  0  0  0  0
   -0.0678    0.1326   -2.5098 H   0  0  0  0  0  0  0  0  0  0  0  0
   -1.5598   -1.1431    2.0226 H   0  0  0  0  0  0  0  0  0  0  0  0
   -2.3203    0.6645   -1.8231 H   0  0  0  0  0  0  0  0  0  0  0  0
    2.1914   -2.1016   -0.6459 H   0  0  0  0  0  0  0  0  0  0  0  0
    1.9241   -1.2875   -2.1614 H   0  0  0  0  0  0  0  0  0  0  0  0
    3.9346   -0.4666   -1.1044 H   0  0  0  0  0  0  0  0  0  0  0  0
    2.2792    0.4785    1.1333 H   0  0  0  0  0  0  0  0  0  0  0  0
  1 10  1  0
  2 13  1  0
  3 14  1  0
  4 14  1  0
  5  7  2  0
  5 11  1  0
  6  8  1  0
  6 11  2  0
  7 12  1  0
  8 12  2  0
  9 10  1  0
  9 11  1  0
 10 13  1  0
 12 14  1  0
  1 15  1  0
  1 16  1  0
  1 17  1  0
  2 18  1  0
  2 19  1  0
  2 20  1  0
  3 21  1  0
  3 22  1  0
  3 23  1  0
  4 24  1  0
  4 25  1  0
  4 26  1  0
  5 27  1  0
  6 28  1  0
  7 29  1  0
  8 30  1  0
  9 31  1  0
  9 32  1  0
 10 33  1  0
 13 34  1  0
M  END
