
     RDKit          3D

 30 31  0  0  0  0  0  0  0  0999 V2000
   -5.0407    2.7134   -1.6733 C   0  0  0  0  0  0  0  0  0  0  0  0
   -2.2753   -1.0885    1.2667 C   0  0  0  0  0  0  0  0  0  0  0  0
   -4.4725    1.7462   -1.2434 C   0  0  0  0  0  0  0  0  0  0  0  0
    1.1598   -1.3791    0.0094 C   0  0  0  0  0  0  0  0  0  0  0  0
    2.4428   -1.8503   -0.2966 C   0  0  0  0  0  0  0  0  0  0  0  0
   -3.7775    0.5652   -0.7158 C   0  0  0  0  0  0  0  0  0  0  0  0
    2.0910    0.7363    0.7854 C   0  0  0  0  0  0  0  0  0  0  0  0
    5.4518   -0.0866    0.1508 C   0  0  0  0  0  0  0  0  0  0  0  0
   -1.6285   -0.1539    0.2442 C   0  0  0  0  0  0  0  0  0  0  0  0
    0.9773   -0.0841    0.5428 C   0  0  0  0  0  0  0  0  0  0  0  0
    3.5106   -1.0141   -0.0549 C   0  0  0  0  0  0  0  0  0  0  0  0
    3.3397    0.2432    0.4727 C   0  0  0  0  0  0  0  0  0  0  0  0
   -0.3711    0.4567    0.8904 C   0  0  0  0  0  0  0  0  0  0  0  0
   -2.4893    0.9662   -0.1742 N   0  0  0  0  0  0  0  0  0  0  0  0
   -0.4494    1.3780    1.7070 O   0  0  0  0  0  0  0  0  0  0  0  0
    4.8172   -1.3063   -0.2890 O   0  0  0  0  0  0  0  0  0  0  0  0
    4.5186    0.9005    0.6363 O   0  0  0  0  0  0  0  0  0  0  0  0
   -5.5353    3.5768   -2.0539 H   0  0  0  0  0  0  0  0  0  0  0  0
   -1.5476   -1.8103    1.6538 H   0  0  0  0  0  0  0  0  0  0  0  0
   -3.0984   -1.6587    0.8248 H   0  0  0  0  0  0  0  0  0  0  0  0
   -2.6655   -0.5316    2.1264 H   0  0  0  0  0  0  0  0  0  0  0  0
    0.3207   -2.0470   -0.1616 H   0  0  0  0  0  0  0  0  0  0  0  0
    2.5961   -2.8431   -0.7059 H   0  0  0  0  0  0  0  0  0  0  0  0
   -3.6418   -0.1619   -1.5245 H   0  0  0  0  0  0  0  0  0  0  0  0
   -4.4025    0.1020    0.0552 H   0  0  0  0  0  0  0  0  0  0  0  0
    1.9809    1.7324    1.2036 H   0  0  0  0  0  0  0  0  0  0  0  0
    6.0096    0.3413   -0.6901 H   0  0  0  0  0  0  0  0  0  0  0  0
    6.1568   -0.3284    0.9545 H   0  0  0  0  0  0  0  0  0  0  0  0
   -1.3515   -0.7095   -0.6564 H   0  0  0  0  0  0  0  0  0  0  0  0
   -2.6259    1.5953    0.6212 H   0  0  0  0  0  0  0  0  0  0  0  0
  1  3  3  0
  2  9  1  0
  3  6  1  0
  4  5  2  0
  4 10  1  0
  5 11  1  0
  6 14  1  0
  7 10  2  0
  7 12  1  0
  8 16  1  0
  8 17  1  0
  9 13  1  0
  9 14  1  0
 10 13  1  0
 11 12  2  0
 11 16  1  0
 12 17  1  0
 13 15  2  0
  1 18  1  0
  2 19  1  0
  2 20  1  0
  2 21  1  0
  4 22  1  0
  5 23  1  0
  6 24  1  0
  6 25  1  0
  7 26  1  0
  8 27  1  0
  8 28  1  0
  9 29  1  0
 14 30  1  0
M  END
