
     RDKit          3D

 36 36  0  0  0  0  0  0  0  0999 V2000
   -1.8437   -0.6105    1.5907 C   0  0  0  0  0  0  0  0  0  0  0  0
   -4.5643    1.9319   -1.3950 C   0  0  0  0  0  0  0  0  0  0  0  0
    0.8645   -3.8984    1.0663 C   0  0  0  0  0  0  0  0  0  0  0  0
    3.2448    2.6810   -1.3525 C   0  0  0  0  0  0  0  0  0  0  0  0
   -0.7999   -0.4575   -0.7297 C   0  0  0  0  0  0  0  0  0  0  0  0
    1.5109    0.5463   -0.6892 C   0  0  0  0  0  0  0  0  0  0  0  0
    2.5921   -1.7344    0.4933 C   0  0  0  0  0  0  0  0  0  0  0  0
   -1.6268    0.2643    0.3542 C   0  0  0  0  0  0  0  0  0  0  0  0
   -3.2045    1.6282   -0.8577 C   0  0  0  0  0  0  0  0  0  0  0  0
    0.6780   -0.5545   -0.4005 C   0  0  0  0  0  0  0  0  0  0  0  0
    3.4063   -0.6312    0.2035 C   0  0  0  0  0  0  0  0  0  0  0  0
    1.2288   -1.7036    0.1935 C   0  0  0  0  0  0  0  0  0  0  0  0
    2.8774    0.5200   -0.3953 C   0  0  0  0  0  0  0  0  0  0  0  0
    5.4460   -0.7844    0.6990 I   0  0  0  0  0  0  0  0  0  0  0  0
   -2.9554    0.5731   -0.1807 N   0  0  0  0  0  0  0  0  0  0  0  0
   -2.3040    2.5720   -1.1801 O   0  0  0  0  0  0  0  0  0  0  0  0
    0.3555   -2.7295    0.4372 O   0  0  0  0  0  0  0  0  0  0  0  0
    3.7410    1.5521   -0.6464 O   0  0  0  0  0  0  0  0  0  0  0  0
   -0.9004   -0.8180    2.1043 H   0  0  0  0  0  0  0  0  0  0  0  0
   -2.5048   -0.1076    2.3057 H   0  0  0  0  0  0  0  0  0  0  0  0
   -2.3128   -1.5648    1.3270 H   0  0  0  0  0  0  0  0  0  0  0  0
   -4.8981    2.9037   -1.0213 H   0  0  0  0  0  0  0  0  0  0  0  0
   -4.5293    1.9513   -2.4876 H   0  0  0  0  0  0  0  0  0  0  0  0
   -5.2784    1.1672   -1.0768 H   0  0  0  0  0  0  0  0  0  0  0  0
    1.2626   -3.6703    2.0605 H   0  0  0  0  0  0  0  0  0  0  0  0
    0.0326   -4.5977    1.1940 H   0  0  0  0  0  0  0  0  0  0  0  0
    1.6171   -4.3876    0.4393 H   0  0  0  0  0  0  0  0  0  0  0  0
    2.4834    3.2068   -0.7673 H   0  0  0  0  0  0  0  0  0  0  0  0
    2.8611    2.3955   -2.3376 H   0  0  0  0  0  0  0  0  0  0  0  0
    4.0795    3.3713   -1.5081 H   0  0  0  0  0  0  0  0  0  0  0  0
   -0.8918    0.0792   -1.6841 H   0  0  0  0  0  0  0  0  0  0  0  0
   -1.2211   -1.4493   -0.9377 H   0  0  0  0  0  0  0  0  0  0  0  0
    1.0612    1.4181   -1.1530 H   0  0  0  0  0  0  0  0  0  0  0  0
    3.0421   -2.6081    0.9522 H   0  0  0  0  0  0  0  0  0  0  0  0
   -1.1193    1.1743    0.6957 H   0  0  0  0  0  0  0  0  0  0  0  0
   -1.4302    2.3708   -0.8240 H   0  0  0  0  0  0  0  0  0  0  0  0
  1  8  1  0
  2  9  1  0
  3 17  1  0
  4 18  1  0
  5  8  1  0
  5 10  1  0
  6 10  2  0
  6 13  1  0
  7 11  1  0
  7 12  2  0
  8 15  1  0
  9 15  2  3
  9 16  1  0
 10 12  1  0
 11 13  2  0
 11 14  1  0
 12 17  1  0
 13 18  1  0
  1 19  1  0
  1 20  1  0
  1 21  1  0
  2 22  1  0
  2 23  1  0
  2 24  1  0
  3 25  1  0
  3 26  1  0
  3 27  1  0
  4 28  1  0
  4 29  1  0
  4 30  1  0
  5 31  1  0
  5 32  1  0
  6 33  1  0
  7 34  1  0
  8 35  1  0
 16 36  1  0
M  END
