
     RDKit          3D

 35 36  0  0  0  0  0  0  0  0999 V2000
   -1.8598   -0.1678   -1.5683 C   0  0  0  0  0  0  0  0  0  0  0  0
   -3.9235    1.4938   -0.1900 C   0  0  0  0  0  0  0  0  0  0  0  0
   -4.4131   -0.8330    0.1365 C   0  0  0  0  0  0  0  0  0  0  0  0
    0.7905   -0.8473    1.3780 C   0  0  0  0  0  0  0  0  0  0  0  0
    2.0934   -1.3443    1.2996 C   0  0  0  0  0  0  0  0  0  0  0  0
    4.9872   -0.8774   -0.7701 C   0  0  0  0  0  0  0  0  0  0  0  0
    4.8448    0.6247   -0.9514 C   0  0  0  0  0  0  0  0  0  0  0  0
   -1.0262    0.7606    0.6563 C   0  0  0  0  0  0  0  0  0  0  0  0
    1.3231    0.8219   -0.2887 C   0  0  0  0  0  0  0  0  0  0  0  0
   -2.0719   -0.1480   -0.0456 C   0  0  0  0  0  0  0  0  0  0  0  0
    0.3912    0.2354    0.5800 C   0  0  0  0  0  0  0  0  0  0  0  0
    3.0061   -0.7649    0.4222 C   0  0  0  0  0  0  0  0  0  0  0  0
    2.6273    0.3327   -0.3562 C   0  0  0  0  0  0  0  0  0  0  0  0
   -3.4422    0.2352    0.3772 N   0  0  0  0  0  0  0  0  0  0  0  0
    4.2602   -1.3194    0.3817 O   0  0  0  0  0  0  0  0  0  0  0  0
    3.4818    0.9746   -1.2168 O   0  0  0  0  0  0  0  0  0  0  0  0
   -0.8903   -0.6109   -1.8193 H   0  0  0  0  0  0  0  0  0  0  0  0
   -2.6191   -0.7717   -2.0744 H   0  0  0  0  0  0  0  0  0  0  0  0
   -1.8825    0.8400   -1.9958 H   0  0  0  0  0  0  0  0  0  0  0  0
   -3.2394    2.3202    0.0247 H   0  0  0  0  0  0  0  0  0  0  0  0
   -4.8824    1.7694    0.2642 H   0  0  0  0  0  0  0  0  0  0  0  0
   -4.0727    1.4377   -1.2737 H   0  0  0  0  0  0  0  0  0  0  0  0
   -4.5738   -1.0254   -0.9293 H   0  0  0  0  0  0  0  0  0  0  0  0
   -5.3804   -0.5761    0.5833 H   0  0  0  0  0  0  0  0  0  0  0  0
   -4.0925   -1.7659    0.6132 H   0  0  0  0  0  0  0  0  0  0  0  0
    0.0856   -1.3110    2.0652 H   0  0  0  0  0  0  0  0  0  0  0  0
    2.3922   -2.1879    1.9153 H   0  0  0  0  0  0  0  0  0  0  0  0
    4.6184   -1.4246   -1.6466 H   0  0  0  0  0  0  0  0  0  0  0  0
    6.0385   -1.1424   -0.6201 H   0  0  0  0  0  0  0  0  0  0  0  0
    5.4450    0.9616   -1.8024 H   0  0  0  0  0  0  0  0  0  0  0  0
    5.1784    1.1707   -0.0603 H   0  0  0  0  0  0  0  0  0  0  0  0
   -1.0575    1.7759    0.2413 H   0  0  0  0  0  0  0  0  0  0  0  0
   -1.2808    0.8664    1.7201 H   0  0  0  0  0  0  0  0  0  0  0  0
    1.0414    1.6674   -0.9113 H   0  0  0  0  0  0  0  0  0  0  0  0
   -1.8967   -1.1700    0.3177 H   0  0  0  0  0  0  0  0  0  0  0  0
  1 10  1  0
  2 14  1  0
  3 14  1  0
  4  5  2  0
  4 11  1  0
  5 12  1  0
  6  7  1  0
  6 15  1  0
  7 16  1  0
  8 10  1  0
  8 11  1  0
  9 11  2  0
  9 13  1  0
 10 14  1  0
 12 13  2  0
 12 15  1  0
 13 16  1  0
  1 17  1  0
  1 18  1  0
  1 19  1  0
  2 20  1  0
  2 21  1  0
  2 22  1  0
  3 23  1  0
  3 24  1  0
  3 25  1  0
  4 26  1  0
  5 27  1  0
  6 28  1  0
  6 29  1  0
  7 30  1  0
  7 31  1  0
  8 32  1  0
  8 33  1  0
  9 34  1  0
 10 35  1  0
M  END
