
     RDKit          3D

 35 36  0  0  0  0  0  0  0  0999 V2000
   -4.4568    1.1731    0.3663 C   0  0  0  0  0  0  0  0  0  0  0  0
   -0.8952   -0.5961   -1.6826 C   0  0  0  0  0  0  0  0  0  0  0  0
   -3.2317   -1.6076    0.1691 C   0  0  0  0  0  0  0  0  0  0  0  0
   -3.1876    0.7609   -0.3742 C   0  0  0  0  0  0  0  0  0  0  0  0
    1.8856   -0.6611    1.2458 C   0  0  0  0  0  0  0  0  0  0  0  0
    3.2521   -0.9506    1.1809 C   0  0  0  0  0  0  0  0  0  0  0  0
   -0.1822    0.5862    0.4660 C   0  0  0  0  0  0  0  0  0  0  0  0
    2.1060    0.9684   -0.5508 C   0  0  0  0  0  0  0  0  0  0  0  0
    5.5628    0.5240   -1.0191 C   0  0  0  0  0  0  0  0  0  0  0  0
   -1.0740   -0.5221   -0.1575 C   0  0  0  0  0  0  0  0  0  0  0  0
    1.3019    0.2957    0.3834 C   0  0  0  0  0  0  0  0  0  0  0  0
    4.0069   -0.2718    0.2502 C   0  0  0  0  0  0  0  0  0  0  0  0
    3.4499    0.6614   -0.5915 C   0  0  0  0  0  0  0  0  0  0  0  0
   -2.4845   -0.3514    0.2847 N   0  0  0  0  0  0  0  0  0  0  0  0
    5.3427   -0.4238    0.0459 O   0  0  0  0  0  0  0  0  0  0  0  0
    4.3651    1.2139   -1.4324 O   0  0  0  0  0  0  0  0  0  0  0  0
   -4.8693    2.0834   -0.0818 H   0  0  0  0  0  0  0  0  0  0  0  0
   -5.2320    0.4032    0.3122 H   0  0  0  0  0  0  0  0  0  0  0  0
   -4.2479    1.3845    1.4203 H   0  0  0  0  0  0  0  0  0  0  0  0
    0.1297   -0.8832   -1.9399 H   0  0  0  0  0  0  0  0  0  0  0  0
   -1.5526   -1.3487   -2.1290 H   0  0  0  0  0  0  0  0  0  0  0  0
   -1.0996    0.3658   -2.1643 H   0  0  0  0  0  0  0  0  0  0  0  0
   -3.4099   -1.8951   -0.8723 H   0  0  0  0  0  0  0  0  0  0  0  0
   -2.6977   -2.4262    0.6651 H   0  0  0  0  0  0  0  0  0  0  0  0
   -4.1994   -1.5395    0.6757 H   0  0  0  0  0  0  0  0  0  0  0  0
   -3.4375    0.5160   -1.4138 H   0  0  0  0  0  0  0  0  0  0  0  0
   -2.5468    1.6486   -0.4028 H   0  0  0  0  0  0  0  0  0  0  0  0
    1.2682   -1.1823    1.9756 H   0  0  0  0  0  0  0  0  0  0  0  0
    3.7037   -1.6827    1.8404 H   0  0  0  0  0  0  0  0  0  0  0  0
   -0.4342    0.7112    1.5283 H   0  0  0  0  0  0  0  0  0  0  0  0
   -0.3838    1.5573   -0.0028 H   0  0  0  0  0  0  0  0  0  0  0  0
    1.6940    1.7087   -1.2281 H   0  0  0  0  0  0  0  0  0  0  0  0
    6.2959    1.2659   -0.6820 H   0  0  0  0  0  0  0  0  0  0  0  0
    5.9753   -0.0097   -1.8831 H   0  0  0  0  0  0  0  0  0  0  0  0
   -0.7172   -1.4762    0.2545 H   0  0  0  0  0  0  0  0  0  0  0  0
  1  4  1  0
  2 10  1  0
  3 14  1  0
  4 14  1  0
  5  6  2  0
  5 11  1  0
  6 12  1  0
  7 10  1  0
  7 11  1  0
  8 11  2  0
  8 13  1  0
  9 15  1  0
  9 16  1  0
 10 14  1  0
 12 13  2  0
 12 15  1  0
 13 16  1  0
  1 17  1  0
  1 18  1  0
  1 19  1  0
  2 20  1  0
  2 21  1  0
  2 22  1  0
  3 23  1  0
  3 24  1  0
  3 25  1  0
  4 26  1  0
  4 27  1  0
  5 28  1  0
  6 29  1  0
  7 30  1  0
  7 31  1  0
  8 32  1  0
  9 33  1  0
  9 34  1  0
 10 35  1  0
M  END
