
     RDKit          3D

 36 37  0  0  0  0  0  0  0  0999 V2000
   -2.4193   -3.3229    0.0049 C   0  0  0  0  0  0  0  0  0  0  0  0
   -1.6643    3.1997    0.0614 C   0  0  0  0  0  0  0  0  0  0  0  0
   -4.0204    0.5059   -0.1940 C   0  0  0  0  0  0  0  0  0  0  0  0
    3.0951    1.1372   -0.4322 C   0  0  0  0  0  0  0  0  0  0  0  0
    1.8225    1.6218    0.2616 C   0  0  0  0  0  0  0  0  0  0  0  0
    2.2092   -1.1987   -0.6091 C   0  0  0  0  0  0  0  0  0  0  0  0
   -0.2617   -1.5331   -0.3215 C   0  0  0  0  0  0  0  0  0  0  0  0
    0.8427   -0.6667   -0.2438 C   0  0  0  0  0  0  0  0  0  0  0  0
    3.3622   -0.3262   -0.0863 C   0  0  0  0  0  0  0  0  0  0  0  0
    0.6500    0.6753    0.1265 C   0  0  0  0  0  0  0  0  0  0  0  0
   -1.5523   -1.0985    0.0020 C   0  0  0  0  0  0  0  0  0  0  0  0
   -0.6514    1.1230    0.4265 C   0  0  0  0  0  0  0  0  0  0  0  0
   -1.7524    0.2478    0.3565 C   0  0  0  0  0  0  0  0  0  0  0  0
    4.6480   -0.7458   -0.6542 N   0  0  0  0  0  0  0  0  0  0  0  0
   -2.6505   -1.9201   -0.0009 O   0  0  0  0  0  0  0  0  0  0  0  0
   -0.7632    2.4275    0.8516 O   0  0  0  0  0  0  0  0  0  0  0  0
   -2.9760    0.7401    0.7483 O   0  0  0  0  0  0  0  0  0  0  0  0
   -2.0437   -3.6595   -0.9665 H   0  0  0  0  0  0  0  0  0  0  0  0
   -3.3795   -3.8182    0.1782 H   0  0  0  0  0  0  0  0  0  0  0  0
   -1.7431   -3.6157    0.8152 H   0  0  0  0  0  0  0  0  0  0  0  0
   -1.7520    2.8337   -0.9682 H   0  0  0  0  0  0  0  0  0  0  0  0
   -1.2755    4.2219    0.0188 H   0  0  0  0  0  0  0  0  0  0  0  0
   -2.6462    3.2398    0.5413 H   0  0  0  0  0  0  0  0  0  0  0  0
   -4.6999    1.3631   -0.1540 H   0  0  0  0  0  0  0  0  0  0  0  0
   -4.5940   -0.3808    0.0909 H   0  0  0  0  0  0  0  0  0  0  0  0
   -3.6556    0.4203   -1.2242 H   0  0  0  0  0  0  0  0  0  0  0  0
    2.9884    1.2549   -1.5192 H   0  0  0  0  0  0  0  0  0  0  0  0
    3.9349    1.7722   -0.1242 H   0  0  0  0  0  0  0  0  0  0  0  0
    1.5652    2.6028   -0.1553 H   0  0  0  0  0  0  0  0  0  0  0  0
    2.0255    1.7575    1.3315 H   0  0  0  0  0  0  0  0  0  0  0  0
    2.3264   -2.2154   -0.2121 H   0  0  0  0  0  0  0  0  0  0  0  0
    2.2543   -1.2671   -1.7044 H   0  0  0  0  0  0  0  0  0  0  0  0
   -0.0825   -2.5585   -0.6309 H   0  0  0  0  0  0  0  0  0  0  0  0
    3.4277   -0.4277    1.0045 H   0  0  0  0  0  0  0  0  0  0  0  0
    4.8054   -1.7333   -0.4570 H   0  0  0  0  0  0  0  0  0  0  0  0
    4.6261   -0.6562   -1.6696 H   0  0  0  0  0  0  0  0  0  0  0  0
  1 15  1  0
  2 16  1  0
  3 17  1  0
  4  5  1  0
  4  9  1  0
  5 10  1  0
  6  8  1  0
  6  9  1  0
  7  8  2  0
  7 11  1  0
  8 10  1  0
  9 14  1  0
 10 12  2  0
 11 13  2  0
 11 15  1  0
 12 13  1  0
 12 16  1  0
 13 17  1  0
  1 18  1  0
  1 19  1  0
  1 20  1  0
  2 21  1  0
  2 22  1  0
  2 23  1  0
  3 24  1  0
  3 25  1  0
  3 26  1  0
  4 27  1  0
  4 28  1  0
  5 29  1  0
  5 30  1  0
  6 31  1  0
  6 32  1  0
  7 33  1  0
  9 34  1  0
 14 35  1  0
 14 36  1  0
M  END
