
     RDKit          3D

 34 34  0  0  0  0  0  0  0  0999 V2000
   -4.9472    2.5236    0.1962 C   0  0  0  0  0  0  0  0  0  0  0  0
   -1.5873   -1.8146   -0.5508 C   0  0  0  0  0  0  0  0  0  0  0  0
    5.9412   -0.1452   -0.9846 C   0  0  0  0  0  0  0  0  0  0  0  0
   -3.9224    1.9171   -0.4176 C   0  0  0  0  0  0  0  0  0  0  0  0
    1.1261    0.8660    0.1715 C   0  0  0  0  0  0  0  0  0  0  0  0
    1.8386   -1.4331    0.2404 C   0  0  0  0  0  0  0  0  0  0  0  0
    2.2570    1.1919   -0.5833 C   0  0  0  0  0  0  0  0  0  0  0  0
    2.9694   -1.1060   -0.5151 C   0  0  0  0  0  0  0  0  0  0  0  0
   -3.5147    0.4932   -0.1924 C   0  0  0  0  0  0  0  0  0  0  0  0
   -0.3129   -0.8095    1.4150 C   0  0  0  0  0  0  0  0  0  0  0  0
   -1.6681   -0.8770    0.6588 C   0  0  0  0  0  0  0  0  0  0  0  0
    0.9061   -0.4492    0.5950 C   0  0  0  0  0  0  0  0  0  0  0  0
    3.1942    0.2119   -0.9200 C   0  0  0  0  0  0  0  0  0  0  0  0
   -2.1408    0.4725    0.3001 N   0  0  0  0  0  0  0  0  0  0  0  0
    4.6123    0.6865   -1.8949 S   0  0  0  0  0  0  0  0  0  0  0  0
   -5.1865    3.5602   -0.0188 H   0  0  0  0  0  0  0  0  0  0  0  0
   -5.5640    2.0067    0.9245 H   0  0  0  0  0  0  0  0  0  0  0  0
   -1.0029   -1.3743   -1.3663 H   0  0  0  0  0  0  0  0  0  0  0  0
   -2.5828   -2.0495   -0.9409 H   0  0  0  0  0  0  0  0  0  0  0  0
   -1.1206   -2.7666   -0.2737 H   0  0  0  0  0  0  0  0  0  0  0  0
    5.8921   -1.2277   -1.1286 H   0  0  0  0  0  0  0  0  0  0  0  0
    5.8853    0.0862    0.0828 H   0  0  0  0  0  0  0  0  0  0  0  0
    6.9049    0.2053   -1.3645 H   0  0  0  0  0  0  0  0  0  0  0  0
   -3.3357    2.4754   -1.1446 H   0  0  0  0  0  0  0  0  0  0  0  0
    0.4125    1.6491    0.4166 H   0  0  0  0  0  0  0  0  0  0  0  0
    1.6884   -2.4669    0.5421 H   0  0  0  0  0  0  0  0  0  0  0  0
    2.3964    2.2211   -0.9053 H   0  0  0  0  0  0  0  0  0  0  0  0
    3.6574   -1.8987   -0.7934 H   0  0  0  0  0  0  0  0  0  0  0  0
   -3.5963   -0.0328   -1.1492 H   0  0  0  0  0  0  0  0  0  0  0  0
   -4.1895    0.0075    0.5222 H   0  0  0  0  0  0  0  0  0  0  0  0
   -0.3892   -0.1010    2.2516 H   0  0  0  0  0  0  0  0  0  0  0  0
   -0.1403   -1.7839    1.8919 H   0  0  0  0  0  0  0  0  0  0  0  0
   -2.3865   -1.3064    1.3707 H   0  0  0  0  0  0  0  0  0  0  0  0
   -2.0944    1.0683    1.1265 H   0  0  0  0  0  0  0  0  0  0  0  0
  1  4  2  3
  2 11  1  0
  3 15  1  0
  4  9  1  0
  5  7  2  0
  5 12  1  0
  6  8  1  0
  6 12  2  0
  7 13  1  0
  8 13  2  0
  9 14  1  0
 10 11  1  0
 10 12  1  0
 11 14  1  0
 13 15  1  0
  1 16  1  0
  1 17  1  0
  2 18  1  0
  2 19  1  0
  2 20  1  0
  3 21  1  0
  3 22  1  0
  3 23  1  0
  4 24  1  0
  5 25  1  0
  6 26  1  0
  7 27  1  0
  8 28  1  0
  9 29  1  0
  9 30  1  0
 10 31  1  0
 10 32  1  0
 11 33  1  0
 14 34  1  0
M  END
