
     RDKit          3D

 38 38  0  0  0  0  0  0  0  0999 V2000
    1.1147    2.8099    0.1033 C   0  0  0  0  0  0  0  0  0  0  0  0
    3.7651   -0.9275   -1.2386 C   0  0  0  0  0  0  0  0  0  0  0  0
    0.9473   -3.2099    0.3093 C   0  0  0  0  0  0  0  0  0  0  0  0
   -3.7289    2.3311   -0.7208 C   0  0  0  0  0  0  0  0  0  0  0  0
    0.6330    0.7890    1.5918 C   0  0  0  0  0  0  0  0  0  0  0  0
   -1.6201    0.8502    0.4596 C   0  0  0  0  0  0  0  0  0  0  0  0
   -1.4660   -1.8453   -0.2307 C   0  0  0  0  0  0  0  0  0  0  0  0
    1.6877    1.5509    0.7573 C   0  0  0  0  0  0  0  0  0  0  0  0
    3.1817   -0.1256   -0.1223 C   0  0  0  0  0  0  0  0  0  0  0  0
   -0.4832    0.1054    0.8258 C   0  0  0  0  0  0  0  0  0  0  0  0
   -2.6123   -1.1116   -0.5570 C   0  0  0  0  0  0  0  0  0  0  0  0
   -0.4070   -1.2536    0.4678 C   0  0  0  0  0  0  0  0  0  0  0  0
   -2.6648    0.2599   -0.2546 C   0  0  0  0  0  0  0  0  0  0  0  0
   -3.6109   -1.7034   -1.3602 N   0  0  0  0  0  0  0  0  0  0  0  0
    2.2563    0.7342   -0.3114 N   0  0  0  0  0  0  0  0  0  0  0  0
    3.7513   -0.4065    1.0616 O   0  0  0  0  0  0  0  0  0  0  0  0
    0.7228   -1.9215    0.8665 O   0  0  0  0  0  0  0  0  0  0  0  0
   -3.8069    0.9125   -0.6554 O   0  0  0  0  0  0  0  0  0  0  0  0
    0.3917    2.5699   -0.6830 H   0  0  0  0  0  0  0  0  0  0  0  0
    1.9160    3.3899   -0.3686 H   0  0  0  0  0  0  0  0  0  0  0  0
    0.6269    3.4522    0.8435 H   0  0  0  0  0  0  0  0  0  0  0  0
    3.1868   -0.7792   -2.1548 H   0  0  0  0  0  0  0  0  0  0  0  0
    3.7461   -1.9896   -0.9800 H   0  0  0  0  0  0  0  0  0  0  0  0
    4.7969   -0.6112   -1.4132 H   0  0  0  0  0  0  0  0  0  0  0  0
    0.2156   -3.9320    0.6852 H   0  0  0  0  0  0  0  0  0  0  0  0
    1.9383   -3.5439    0.6317 H   0  0  0  0  0  0  0  0  0  0  0  0
    0.9482   -3.1770   -0.7854 H   0  0  0  0  0  0  0  0  0  0  0  0
   -2.8575    2.6614   -1.2967 H   0  0  0  0  0  0  0  0  0  0  0  0
   -4.6243    2.6909   -1.2368 H   0  0  0  0  0  0  0  0  0  0  0  0
   -3.7275    2.7668    0.2833 H   0  0  0  0  0  0  0  0  0  0  0  0
    0.1811    1.4836    2.3135 H   0  0  0  0  0  0  0  0  0  0  0  0
    1.1397    0.0465    2.2204 H   0  0  0  0  0  0  0  0  0  0  0  0
   -1.6684    1.8950    0.7477 H   0  0  0  0  0  0  0  0  0  0  0  0
   -1.4267   -2.8856   -0.5324 H   0  0  0  0  0  0  0  0  0  0  0  0
    2.4774    1.8961    1.4371 H   0  0  0  0  0  0  0  0  0  0  0  0
   -3.7683   -2.6838   -1.1590 H   0  0  0  0  0  0  0  0  0  0  0  0
   -4.4638   -1.1459   -1.3293 H   0  0  0  0  0  0  0  0  0  0  0  0
    3.3118    0.0576    1.7848 H   0  0  0  0  0  0  0  0  0  0  0  0
  1  8  1  0
  2  9  1  0
  3 17  1  0
  4 18  1  0
  5  8  1  0
  5 10  1  0
  6 10  2  0
  6 13  1  0
  7 11  1  0
  7 12  2  0
  8 15  1  0
  9 15  2  3
  9 16  1  0
 10 12  1  0
 11 13  2  0
 11 14  1  0
 12 17  1  0
 13 18  1  0
  1 19  1  0
  1 20  1  0
  1 21  1  0
  2 22  1  0
  2 23  1  0
  2 24  1  0
  3 25  1  0
  3 26  1  0
  3 27  1  0
  4 28  1  0
  4 29  1  0
  4 30  1  0
  5 31  1  0
  5 32  1  0
  6 33  1  0
  7 34  1  0
  8 35  1  0
 14 36  1  0
 14 37  1  0
 16 38  1  0
M  END
