
     RDKit          3D

 36 36  0  0  0  0  0  0  0  0999 V2000
    2.8342   -0.7424   -1.1768 C   0  0  0  0  0  0  0  0  0  0  0  0
    2.8726    1.6425   -0.4127 C   0  0  0  0  0  0  0  0  0  0  0  0
    0.8972   -1.9392    2.1892 C   0  0  0  0  0  0  0  0  0  0  0  0
   -2.9067   -2.0772   -1.5625 C   0  0  0  0  0  0  0  0  0  0  0  0
   -1.7120    2.7602   -0.7921 C   0  0  0  0  0  0  0  0  0  0  0  0
   -2.4412    2.1118   -1.7835 C   0  0  0  0  0  0  0  0  0  0  0  0
   -1.1519    2.0232    0.2487 C   0  0  0  0  0  0  0  0  0  0  0  0
   -2.6109    0.7253   -1.7378 C   0  0  0  0  0  0  0  0  0  0  0  0
   -0.6828   -0.1389    1.4504 C   0  0  0  0  0  0  0  0  0  0  0  0
    2.0529    0.3520   -0.4454 C   0  0  0  0  0  0  0  0  0  0  0  0
    0.5971   -0.9254    1.0758 C   0  0  0  0  0  0  0  0  0  0  0  0
   -1.3147    0.6289    0.3079 C   0  0  0  0  0  0  0  0  0  0  0  0
   -2.0519   -0.0250   -0.6977 C   0  0  0  0  0  0  0  0  0  0  0  0
    1.7649   -0.0308    0.9440 N   0  0  0  0  0  0  0  0  0  0  0  0
   -2.1632   -1.3854   -0.5683 O   0  0  0  0  0  0  0  0  0  0  0  0
    2.2604   -1.6723   -1.2414 H   0  0  0  0  0  0  0  0  0  0  0  0
    3.7818   -0.9650   -0.6733 H   0  0  0  0  0  0  0  0  0  0  0  0
    3.0669   -0.4284   -2.2003 H   0  0  0  0  0  0  0  0  0  0  0  0
    2.3210    2.4447    0.0903 H   0  0  0  0  0  0  0  0  0  0  0  0
    3.0970    1.9831   -1.4294 H   0  0  0  0  0  0  0  0  0  0  0  0
    3.8246    1.5046    0.1126 H   0  0  0  0  0  0  0  0  0  0  0  0
    1.0651   -1.4429    3.1518 H   0  0  0  0  0  0  0  0  0  0  0  0
    0.0622   -2.6378    2.3112 H   0  0  0  0  0  0  0  0  0  0  0  0
    1.7876   -2.5322    1.9513 H   0  0  0  0  0  0  0  0  0  0  0  0
   -2.4434   -1.9691   -2.5487 H   0  0  0  0  0  0  0  0  0  0  0  0
   -2.8969   -3.1410   -1.3064 H   0  0  0  0  0  0  0  0  0  0  0  0
   -3.9511   -1.7485   -1.5755 H   0  0  0  0  0  0  0  0  0  0  0  0
   -1.5761    3.8376   -0.8289 H   0  0  0  0  0  0  0  0  0  0  0  0
   -2.8793    2.6850   -2.5964 H   0  0  0  0  0  0  0  0  0  0  0  0
   -0.5717    2.5360    1.0132 H   0  0  0  0  0  0  0  0  0  0  0  0
   -3.1864    0.2624   -2.5320 H   0  0  0  0  0  0  0  0  0  0  0  0
   -1.4415   -0.8269    1.8484 H   0  0  0  0  0  0  0  0  0  0  0  0
   -0.4681    0.5449    2.2835 H   0  0  0  0  0  0  0  0  0  0  0  0
    1.1323    0.5593   -0.9995 H   0  0  0  0  0  0  0  0  0  0  0  0
    0.4369   -1.5035    0.1583 H   0  0  0  0  0  0  0  0  0  0  0  0
    2.5949   -0.4698    1.3408 H   0  0  0  0  0  0  0  0  0  0  0  0
  1 10  1  0
  2 10  1  0
  3 11  1  0
  4 15  1  0
  5  6  2  0
  5  7  1  0
  6  8  1  0
  7 12  2  0
  8 13  2  0
  9 11  1  0
  9 12  1  0
 10 14  1  0
 11 14  1  0
 12 13  1  0
 13 15  1  0
  1 16  1  0
  1 17  1  0
  1 18  1  0
  2 19  1  0
  2 20  1  0
  2 21  1  0
  3 22  1  0
  3 23  1  0
  3 24  1  0
  4 25  1  0
  4 26  1  0
  4 27  1  0
  5 28  1  0
  6 29  1  0
  7 30  1  0
  8 31  1  0
  9 32  1  0
  9 33  1  0
 10 34  1  0
 11 35  1  0
 14 36  1  0
M  END
