
     RDKit          3D

 37 37  0  0  0  0  0  0  0  0999 V2000
   -3.3155    1.5921   -0.5161 C   0  0  0  0  0  0  0  0  0  0  0  0
   -3.0804   -0.8868    1.4551 C   0  0  0  0  0  0  0  0  0  0  0  0
   -3.3912   -1.3380   -0.8822 C   0  0  0  0  0  0  0  0  0  0  0  0
    4.4227   -2.4447    0.2720 C   0  0  0  0  0  0  0  0  0  0  0  0
    3.2345    2.8552    0.7694 C   0  0  0  0  0  0  0  0  0  0  0  0
    0.6263   -1.0889   -0.9715 C   0  0  0  0  0  0  0  0  0  0  0  0
    1.8779   -1.5646   -0.5733 C   0  0  0  0  0  0  0  0  0  0  0  0
   -1.0516    0.7776   -1.2754 C   0  0  0  0  0  0  0  0  0  0  0  0
    1.2640    1.1441   -0.3161 C   0  0  0  0  0  0  0  0  0  0  0  0
   -2.1327    0.6756   -0.1647 C   0  0  0  0  0  0  0  0  0  0  0  0
    0.3086    0.2665   -0.8516 C   0  0  0  0  0  0  0  0  0  0  0  0
    2.8331   -0.6903   -0.0457 C   0  0  0  0  0  0  0  0  0  0  0  0
    2.5231    0.6780    0.0851 C   0  0  0  0  0  0  0  0  0  0  0  0
   -2.5147   -0.7289    0.1153 N   0  0  0  0  0  0  0  0  0  0  0  0
    4.0867   -1.0687    0.3693 O   0  0  0  0  0  0  0  0  0  0  0  0
    3.5121    1.4718    0.6138 O   0  0  0  0  0  0  0  0  0  0  0  0
   -4.0984    1.5520    0.2476 H   0  0  0  0  0  0  0  0  0  0  0  0
   -3.7606    1.3323   -1.4823 H   0  0  0  0  0  0  0  0  0  0  0  0
   -2.9816    2.6339   -0.5796 H   0  0  0  0  0  0  0  0  0  0  0  0
   -3.2419   -1.9472    1.6800 H   0  0  0  0  0  0  0  0  0  0  0  0
   -4.0365   -0.3655    1.5710 H   0  0  0  0  0  0  0  0  0  0  0  0
   -2.3870   -0.5134    2.2168 H   0  0  0  0  0  0  0  0  0  0  0  0
   -2.9721   -1.2595   -1.8898 H   0  0  0  0  0  0  0  0  0  0  0  0
   -3.5010   -2.4101   -0.6819 H   0  0  0  0  0  0  0  0  0  0  0  0
   -4.3938   -0.8965   -0.8878 H   0  0  0  0  0  0  0  0  0  0  0  0
    3.7629   -3.0584    0.8942 H   0  0  0  0  0  0  0  0  0  0  0  0
    5.4425   -2.5674    0.6495 H   0  0  0  0  0  0  0  0  0  0  0  0
    4.4123   -2.7815   -0.7698 H   0  0  0  0  0  0  0  0  0  0  0  0
    3.0435    3.3315   -0.1979 H   0  0  0  0  0  0  0  0  0  0  0  0
    2.4023    3.0163    1.4626 H   0  0  0  0  0  0  0  0  0  0  0  0
    4.1217    3.3279    1.2018 H   0  0  0  0  0  0  0  0  0  0  0  0
   -0.1083   -1.7879   -1.3658 H   0  0  0  0  0  0  0  0  0  0  0  0
    2.0717   -2.6256   -0.6848 H   0  0  0  0  0  0  0  0  0  0  0  0
   -0.9380    1.8286   -1.5751 H   0  0  0  0  0  0  0  0  0  0  0  0
   -1.3665    0.2605   -2.1901 H   0  0  0  0  0  0  0  0  0  0  0  0
    1.0007    2.1921   -0.2212 H   0  0  0  0  0  0  0  0  0  0  0  0
   -1.6750    1.0877    0.7460 H   0  0  0  0  0  0  0  0  0  0  0  0
  1 10  1  0
  2 14  1  0
  3 14  1  0
  4 15  1  0
  5 16  1  0
  6  7  2  0
  6 11  1  0
  7 12  1  0
  8 10  1  0
  8 11  1  0
  9 11  2  0
  9 13  1  0
 10 14  1  0
 12 13  2  0
 12 15  1  0
 13 16  1  0
  1 17  1  0
  1 18  1  0
  1 19  1  0
  2 20  1  0
  2 21  1  0
  2 22  1  0
  3 23  1  0
  3 24  1  0
  3 25  1  0
  4 26  1  0
  4 27  1  0
  4 28  1  0
  5 29  1  0
  5 30  1  0
  5 31  1  0
  6 32  1  0
  7 33  1  0
  8 34  1  0
  8 35  1  0
  9 36  1  0
 10 37  1  0
M  END
