
     RDKit          3D

 37 37  0  0  0  0  0  0  0  0999 V2000
   -0.5880    3.5713   -0.1700 C   0  0  0  0  0  0  0  0  0  0  0  0
   -2.3598   -0.5622    1.6885 C   0  0  0  0  0  0  0  0  0  0  0  0
    4.0794   -1.5512    1.1881 C   0  0  0  0  0  0  0  0  0  0  0  0
    0.6581   -3.2664   -0.6483 C   0  0  0  0  0  0  0  0  0  0  0  0
   -0.4381    2.4887   -1.2327 C   0  0  0  0  0  0  0  0  0  0  0  0
    1.7430    1.5081   -0.5173 C   0  0  0  0  0  0  0  0  0  0  0  0
    2.5687    0.4868   -0.0434 C   0  0  0  0  0  0  0  0  0  0  0  0
   -1.6445   -0.2903   -0.7534 C   0  0  0  0  0  0  0  0  0  0  0  0
   -2.5836    0.1873    0.3754 C   0  0  0  0  0  0  0  0  0  0  0  0
    0.3700    1.3026   -0.7465 C   0  0  0  0  0  0  0  0  0  0  0  0
   -0.1745    0.0176   -0.5198 C   0  0  0  0  0  0  0  0  0  0  0  0
    2.0461   -0.7788    0.2071 C   0  0  0  0  0  0  0  0  0  0  0  0
    0.6842   -1.0133   -0.0634 C   0  0  0  0  0  0  0  0  0  0  0  0
   -3.9908    0.0116   -0.0195 N   0  0  0  0  0  0  0  0  0  0  0  0
    2.7715   -1.8289    0.7064 O   0  0  0  0  0  0  0  0  0  0  0  0
    0.1116   -2.2430    0.1837 O   0  0  0  0  0  0  0  0  0  0  0  0
   -1.0541    3.1779    0.7388 H   0  0  0  0  0  0  0  0  0  0  0  0
    0.3804    3.9986    0.1101 H   0  0  0  0  0  0  0  0  0  0  0  0
   -1.2137    4.3858   -0.5488 H   0  0  0  0  0  0  0  0  0  0  0  0
   -1.3582   -0.3713    2.0866 H   0  0  0  0  0  0  0  0  0  0  0  0
   -2.4758   -1.6442    1.5601 H   0  0  0  0  0  0  0  0  0  0  0  0
   -3.0757   -0.2359    2.4518 H   0  0  0  0  0  0  0  0  0  0  0  0
    4.4695   -2.4675    1.6415 H   0  0  0  0  0  0  0  0  0  0  0  0
    4.7490   -1.2768    0.3666 H   0  0  0  0  0  0  0  0  0  0  0  0
    4.0638   -0.7775    1.9629 H   0  0  0  0  0  0  0  0  0  0  0  0
   -0.1411   -3.9840   -0.8583 H   0  0  0  0  0  0  0  0  0  0  0  0
    1.0258   -2.8853   -1.6084 H   0  0  0  0  0  0  0  0  0  0  0  0
    1.4521   -3.8007   -0.1189 H   0  0  0  0  0  0  0  0  0  0  0  0
   -1.4338    2.1934   -1.5719 H   0  0  0  0  0  0  0  0  0  0  0  0
    0.0579    2.9101   -2.1164 H   0  0  0  0  0  0  0  0  0  0  0  0
    2.1838    2.4869   -0.7019 H   0  0  0  0  0  0  0  0  0  0  0  0
    3.6152    0.7189    0.1218 H   0  0  0  0  0  0  0  0  0  0  0  0
   -1.7923   -1.3650   -0.9214 H   0  0  0  0  0  0  0  0  0  0  0  0
   -1.9412    0.1569   -1.7109 H   0  0  0  0  0  0  0  0  0  0  0  0
   -2.4313    1.2545    0.5624 H   0  0  0  0  0  0  0  0  0  0  0  0
   -4.1540    0.4659   -0.9166 H   0  0  0  0  0  0  0  0  0  0  0  0
   -4.1795   -0.9803   -0.1640 H   0  0  0  0  0  0  0  0  0  0  0  0
  1  5  1  0
  2  9  1  0
  3 15  1  0
  4 16  1  0
  5 10  1  0
  6  7  2  0
  6 10  1  0
  7 12  1  0
  8  9  1  0
  8 11  1  0
  9 14  1  0
 10 11  2  0
 11 13  1  0
 12 13  2  0
 12 15  1  0
 13 16  1  0
  1 17  1  0
  1 18  1  0
  1 19  1  0
  2 20  1  0
  2 21  1  0
  2 22  1  0
  3 23  1  0
  3 24  1  0
  3 25  1  0
  4 26  1  0
  4 27  1  0
  4 28  1  0
  5 29  1  0
  5 30  1  0
  6 31  1  0
  7 32  1  0
  8 33  1  0
  8 34  1  0
  9 35  1  0
 14 36  1  0
 14 37  1  0
M  END
