
     RDKit          3D

 37 37  0  0  0  0  0  0  0  0999 V2000
    1.7059   -3.0222   -1.0974 C   0  0  0  0  0  0  0  0  0  0  0  0
   -3.3677   -1.8335    1.5766 C   0  0  0  0  0  0  0  0  0  0  0  0
    4.3008    1.2867   -1.2696 C   0  0  0  0  0  0  0  0  0  0  0  0
   -1.3589    3.5913    0.4343 C   0  0  0  0  0  0  0  0  0  0  0  0
    0.4403   -2.2014   -0.8695 C   0  0  0  0  0  0  0  0  0  0  0  0
   -1.8774   -0.5393    0.0069 C   0  0  0  0  0  0  0  0  0  0  0  0
    1.8329   -0.0675   -0.8863 C   0  0  0  0  0  0  0  0  0  0  0  0
    0.8902    2.0766   -0.3241 C   0  0  0  0  0  0  0  0  0  0  0  0
   -2.0698   -1.0346    1.4599 C   0  0  0  0  0  0  0  0  0  0  0  0
    0.5973   -0.7038   -0.6567 C   0  0  0  0  0  0  0  0  0  0  0  0
    1.9841    1.3085   -0.7180 C   0  0  0  0  0  0  0  0  0  0  0  0
   -0.5137    0.0894   -0.2591 C   0  0  0  0  0  0  0  0  0  0  0  0
   -0.3536    1.4860   -0.0946 C   0  0  0  0  0  0  0  0  0  0  0  0
   -2.1191    0.0594    2.4395 N   0  0  0  0  0  0  0  0  0  0  0  0
    3.1376    2.0211   -0.9089 O   0  0  0  0  0  0  0  0  0  0  0  0
   -1.4709    2.1797    0.3006 O   0  0  0  0  0  0  0  0  0  0  0  0
    2.4115   -2.9064   -0.2682 H   0  0  0  0  0  0  0  0  0  0  0  0
    1.4528   -4.0846   -1.1765 H   0  0  0  0  0  0  0  0  0  0  0  0
    2.2084   -2.7348   -2.0269 H   0  0  0  0  0  0  0  0  0  0  0  0
   -4.2407   -1.2238    1.3168 H   0  0  0  0  0  0  0  0  0  0  0  0
   -3.3495   -2.7001    0.9068 H   0  0  0  0  0  0  0  0  0  0  0  0
   -3.5080   -2.2087    2.5965 H   0  0  0  0  0  0  0  0  0  0  0  0
    4.1744    0.8029   -2.2437 H   0  0  0  0  0  0  0  0  0  0  0  0
    5.1303    1.9953   -1.3552 H   0  0  0  0  0  0  0  0  0  0  0  0
    4.5645    0.5581   -0.4956 H   0  0  0  0  0  0  0  0  0  0  0  0
   -0.6484    3.8568    1.2240 H   0  0  0  0  0  0  0  0  0  0  0  0
   -2.3401    3.9761    0.7285 H   0  0  0  0  0  0  0  0  0  0  0  0
   -1.0902    4.0595   -0.5183 H   0  0  0  0  0  0  0  0  0  0  0  0
   -0.2165   -2.3531   -1.7347 H   0  0  0  0  0  0  0  0  0  0  0  0
   -0.0569   -2.6297    0.0075 H   0  0  0  0  0  0  0  0  0  0  0  0
   -2.6755    0.1663   -0.2607 H   0  0  0  0  0  0  0  0  0  0  0  0
   -2.0297   -1.3731   -0.6893 H   0  0  0  0  0  0  0  0  0  0  0  0
    2.6826   -0.6607   -1.2037 H   0  0  0  0  0  0  0  0  0  0  0  0
    1.0463    3.1433   -0.2036 H   0  0  0  0  0  0  0  0  0  0  0  0
   -1.2399   -1.6919    1.7424 H   0  0  0  0  0  0  0  0  0  0  0  0
   -1.2304    0.5628    2.3955 H   0  0  0  0  0  0  0  0  0  0  0  0
   -2.8032    0.7495    2.1243 H   0  0  0  0  0  0  0  0  0  0  0  0
  1  5  1  0
  2  9  1  0
  3 15  1  0
  4 16  1  0
  5 10  1  0
  6  9  1  0
  6 12  1  0
  7 10  2  0
  7 11  1  0
  8 11  2  0
  8 13  1  0
  9 14  1  0
 10 12  1  0
 11 15  1  0
 12 13  2  0
 13 16  1  0
  1 17  1  0
  1 18  1  0
  1 19  1  0
  2 20  1  0
  2 21  1  0
  2 22  1  0
  3 23  1  0
  3 24  1  0
  3 25  1  0
  4 26  1  0
  4 27  1  0
  4 28  1  0
  5 29  1  0
  5 30  1  0
  6 31  1  0
  6 32  1  0
  7 33  1  0
  8 34  1  0
  9 35  1  0
 14 36  1  0
 14 37  1  0
M  END
