
     RDKit          3D

 34 34  0  0  0  0  0  0  0  0999 V2000
   -0.0857    0.7593   -1.7926 C   0  0  0  0  0  0  0  0  0  0  0  0
   -2.0500   -1.7509   -1.1816 C   0  0  0  0  0  0  0  0  0  0  0  0
   -2.8450   -1.5485    1.1607 C   0  0  0  0  0  0  0  0  0  0  0  0
   -3.3796    0.2694   -0.4587 C   0  0  0  0  0  0  0  0  0  0  0  0
    3.4835   -0.9892    0.2734 C   0  0  0  0  0  0  0  0  0  0  0  0
    2.2021   -0.4318    0.2649 C   0  0  0  0  0  0  0  0  0  0  0  0
    4.5972   -0.1765    0.4829 C   0  0  0  0  0  0  0  0  0  0  0  0
    3.1521    1.7543    0.6842 C   0  0  0  0  0  0  0  0  0  0  0  0
   -0.4920    1.0144   -0.3429 C   0  0  0  0  0  0  0  0  0  0  0  0
    2.0309    0.9441    0.4578 C   0  0  0  0  0  0  0  0  0  0  0  0
    4.4264    1.1908    0.6909 C   0  0  0  0  0  0  0  0  0  0  0  0
    0.6870    1.5955    0.4674 C   0  0  0  0  0  0  0  0  0  0  0  0
   -2.3032   -0.7467   -0.0454 C   0  0  0  0  0  0  0  0  0  0  0  0
    5.8019    2.1898    0.9567 Cl  0  0  0  0  0  0  0  0  0  0  0  0
   -1.0423   -0.1284    0.4128 N   0  0  0  0  0  0  0  0  0  0  0  0
    0.5365    2.6051    1.1602 O   0  0  0  0  0  0  0  0  0  0  0  0
    0.4422   -0.1908   -1.9178 H   0  0  0  0  0  0  0  0  0  0  0  0
    0.5766    1.5515   -2.1599 H   0  0  0  0  0  0  0  0  0  0  0  0
   -0.9605    0.7453   -2.4492 H   0  0  0  0  0  0  0  0  0  0  0  0
   -1.2378   -2.4424   -0.9283 H   0  0  0  0  0  0  0  0  0  0  0  0
   -2.9440   -2.3565   -1.3736 H   0  0  0  0  0  0  0  0  0  0  0  0
   -1.7954   -1.2646   -2.1257 H   0  0  0  0  0  0  0  0  0  0  0  0
   -3.0702   -0.8934    2.0109 H   0  0  0  0  0  0  0  0  0  0  0  0
   -3.7704   -2.0766    0.9023 H   0  0  0  0  0  0  0  0  0  0  0  0
   -2.1217   -2.3002    1.4995 H   0  0  0  0  0  0  0  0  0  0  0  0
   -4.3326   -0.2323   -0.6642 H   0  0  0  0  0  0  0  0  0  0  0  0
   -3.1045    0.8150   -1.3669 H   0  0  0  0  0  0  0  0  0  0  0  0
   -3.5606    1.0023    0.3360 H   0  0  0  0  0  0  0  0  0  0  0  0
    3.6113   -2.0590    0.1244 H   0  0  0  0  0  0  0  0  0  0  0  0
    1.3507   -1.0930    0.1244 H   0  0  0  0  0  0  0  0  0  0  0  0
    5.5920   -0.6147    0.4908 H   0  0  0  0  0  0  0  0  0  0  0  0
    3.0288    2.8218    0.8549 H   0  0  0  0  0  0  0  0  0  0  0  0
   -1.2323    1.8254   -0.3553 H   0  0  0  0  0  0  0  0  0  0  0  0
   -1.1913    0.2116    1.3689 H   0  0  0  0  0  0  0  0  0  0  0  0
  1  9  1  0
  2 13  1  0
  3 13  1  0
  4 13  1  0
  5  6  2  0
  5  7  1  0
  6 10  1  0
  7 11  2  0
  8 10  2  0
  8 11  1  0
  9 12  1  0
  9 15  1  0
 10 12  1  0
 11 14  1  0
 12 16  2  0
 13 15  1  0
  1 17  1  0
  1 18  1  0
  1 19  1  0
  2 20  1  0
  2 21  1  0
  2 22  1  0
  3 23  1  0
  3 24  1  0
  3 25  1  0
  4 26  1  0
  4 27  1  0
  4 28  1  0
  5 29  1  0
  6 30  1  0
  7 31  1  0
  8 32  1  0
  9 33  1  0
 15 34  1  0
M  END
