
     RDKit          3D

 37 37  0  0  0  0  0  0  0  0999 V2000
    2.5145   -1.2348   -2.2167 C   0  0  0  0  0  0  0  0  0  0  0  0
   -4.5479    0.2801    0.0716 C   0  0  0  0  0  0  0  0  0  0  0  0
    3.7644    2.5655    0.0482 C   0  0  0  0  0  0  0  0  0  0  0  0
   -0.0783   -2.7775    1.1201 C   0  0  0  0  0  0  0  0  0  0  0  0
    2.5054   -1.3576   -0.6993 C   0  0  0  0  0  0  0  0  0  0  0  0
   -0.2298    1.5602    0.9367 C   0  0  0  0  0  0  0  0  0  0  0  0
    1.1077    1.8989    0.7193 C   0  0  0  0  0  0  0  0  0  0  0  0
   -2.1703   -0.0343    0.8400 C   0  0  0  0  0  0  0  0  0  0  0  0
   -3.0862    0.6297   -0.2154 C   0  0  0  0  0  0  0  0  0  0  0  0
   -0.6973    0.2687    0.6656 C   0  0  0  0  0  0  0  0  0  0  0  0
    1.5649   -0.3544   -0.0630 C   0  0  0  0  0  0  0  0  0  0  0  0
    2.0040    0.9587    0.2039 C   0  0  0  0  0  0  0  0  0  0  0  0
    0.2210   -0.6909    0.2060 C   0  0  0  0  0  0  0  0  0  0  0  0
   -2.7468    0.2268   -1.5828 N   0  0  0  0  0  0  0  0  0  0  0  0
    3.3227    1.2200   -0.0717 O   0  0  0  0  0  0  0  0  0  0  0  0
   -0.2170   -1.9694   -0.0526 O   0  0  0  0  0  0  0  0  0  0  0  0
    2.8421   -0.2399   -2.5364 H   0  0  0  0  0  0  0  0  0  0  0  0
    3.1980   -1.9712   -2.6510 H   0  0  0  0  0  0  0  0  0  0  0  0
    1.5172   -1.4102   -2.6342 H   0  0  0  0  0  0  0  0  0  0  0  0
   -4.7250   -0.7988   -0.0024 H   0  0  0  0  0  0  0  0  0  0  0  0
   -4.8310    0.6003    1.0801 H   0  0  0  0  0  0  0  0  0  0  0  0
   -5.2190    0.7825   -0.6340 H   0  0  0  0  0  0  0  0  0  0  0  0
    3.7243    2.9009    1.0896 H   0  0  0  0  0  0  0  0  0  0  0  0
    3.1928    3.2317   -0.6065 H   0  0  0  0  0  0  0  0  0  0  0  0
    4.8102    2.6030   -0.2719 H   0  0  0  0  0  0  0  0  0  0  0  0
   -0.7264   -2.4230    1.9285 H   0  0  0  0  0  0  0  0  0  0  0  0
    0.9597   -2.8165    1.4672 H   0  0  0  0  0  0  0  0  0  0  0  0
   -0.3868   -3.7947    0.8611 H   0  0  0  0  0  0  0  0  0  0  0  0
    3.5211   -1.2251   -0.3077 H   0  0  0  0  0  0  0  0  0  0  0  0
    2.2313   -2.3813   -0.4255 H   0  0  0  0  0  0  0  0  0  0  0  0
   -0.9127    2.3232    1.3037 H   0  0  0  0  0  0  0  0  0  0  0  0
    1.4111    2.9157    0.9437 H   0  0  0  0  0  0  0  0  0  0  0  0
   -2.3487   -1.1156    0.8395 H   0  0  0  0  0  0  0  0  0  0  0  0
   -2.4656    0.3040    1.8427 H   0  0  0  0  0  0  0  0  0  0  0  0
   -2.9797    1.7191   -0.1557 H   0  0  0  0  0  0  0  0  0  0  0  0
   -2.5119   -0.7655   -1.6110 H   0  0  0  0  0  0  0  0  0  0  0  0
   -3.5317    0.3714   -2.2131 H   0  0  0  0  0  0  0  0  0  0  0  0
  1  5  1  0
  2  9  1  0
  3 15  1  0
  4 16  1  0
  5 11  1  0
  6  7  2  0
  6 10  1  0
  7 12  1  0
  8  9  1  0
  8 10  1  0
  9 14  1  0
 10 13  2  0
 11 12  2  0
 11 13  1  0
 12 15  1  0
 13 16  1  0
  1 17  1  0
  1 18  1  0
  1 19  1  0
  2 20  1  0
  2 21  1  0
  2 22  1  0
  3 23  1  0
  3 24  1  0
  3 25  1  0
  4 26  1  0
  4 27  1  0
  4 28  1  0
  5 29  1  0
  5 30  1  0
  6 31  1  0
  7 32  1  0
  8 33  1  0
  8 34  1  0
  9 35  1  0
 14 36  1  0
 14 37  1  0
M  END
