
     RDKit          3D

 37 37  0  0  0  0  0  0  0  0999 V2000
    1.0625    3.7706    0.0656 C   0  0  0  0  0  0  0  0  0  0  0  0
    3.7817   -0.9398    0.9912 C   0  0  0  0  0  0  0  0  0  0  0  0
   -2.8776   -0.2980    1.0956 C   0  0  0  0  0  0  0  0  0  0  0  0
   -0.4342   -3.8885    0.5675 C   0  0  0  0  0  0  0  0  0  0  0  0
    1.0947    2.9639   -1.2209 C   0  0  0  0  0  0  0  0  0  0  0  0
    1.4836   -1.8202    0.4666 C   0  0  0  0  0  0  0  0  0  0  0  0
    1.9963    0.4795   -0.0721 C   0  0  0  0  0  0  0  0  0  0  0  0
   -1.6094   -0.2226   -1.1237 C   0  0  0  0  0  0  0  0  0  0  0  0
    2.3871   -0.7514    0.4685 C   0  0  0  0  0  0  0  0  0  0  0  0
   -2.5542    0.5213   -0.1539 C   0  0  0  0  0  0  0  0  0  0  0  0
   -0.2037   -0.4186   -0.5779 C   0  0  0  0  0  0  0  0  0  0  0  0
    0.1904   -1.6623   -0.0409 C   0  0  0  0  0  0  0  0  0  0  0  0
    0.7116    0.6571   -0.5915 C   0  0  0  0  0  0  0  0  0  0  0  0
   -3.8249    0.8482   -0.8245 N   0  0  0  0  0  0  0  0  0  0  0  0
   -0.7564   -2.6546   -0.0598 O   0  0  0  0  0  0  0  0  0  0  0  0
    0.2408    1.8261   -1.1300 O   0  0  0  0  0  0  0  0  0  0  0  0
    0.0332    4.0456    0.3190 H   0  0  0  0  0  0  0  0  0  0  0  0
    1.6553    4.6841   -0.0366 H   0  0  0  0  0  0  0  0  0  0  0  0
    1.4532    3.1957    0.9103 H   0  0  0  0  0  0  0  0  0  0  0  0
    4.1723   -0.0058    1.4088 H   0  0  0  0  0  0  0  0  0  0  0  0
    3.8018   -1.6855    1.7929 H   0  0  0  0  0  0  0  0  0  0  0  0
    4.4420   -1.2703    0.1836 H   0  0  0  0  0  0  0  0  0  0  0  0
   -1.9796   -0.4743    1.6963 H   0  0  0  0  0  0  0  0  0  0  0  0
   -3.5926    0.2313    1.7361 H   0  0  0  0  0  0  0  0  0  0  0  0
   -3.3123   -1.2705    0.8387 H   0  0  0  0  0  0  0  0  0  0  0  0
   -1.3151   -4.5347    0.5042 H   0  0  0  0  0  0  0  0  0  0  0  0
    0.3854   -4.3928    0.0456 H   0  0  0  0  0  0  0  0  0  0  0  0
   -0.2027   -3.7459    1.6282 H   0  0  0  0  0  0  0  0  0  0  0  0
    2.1120    2.7029   -1.5310 H   0  0  0  0  0  0  0  0  0  0  0  0
    0.6901    3.5875   -2.0264 H   0  0  0  0  0  0  0  0  0  0  0  0
    1.8158   -2.7710    0.8709 H   0  0  0  0  0  0  0  0  0  0  0  0
    2.7195    1.2879   -0.0672 H   0  0  0  0  0  0  0  0  0  0  0  0
   -2.0516   -1.1836   -1.4157 H   0  0  0  0  0  0  0  0  0  0  0  0
   -1.5322    0.3337   -2.0684 H   0  0  0  0  0  0  0  0  0  0  0  0
   -2.0993    1.4662    0.1645 H   0  0  0  0  0  0  0  0  0  0  0  0
   -3.6241    1.4009   -1.6575 H   0  0  0  0  0  0  0  0  0  0  0  0
   -4.2599   -0.0123   -1.1561 H   0  0  0  0  0  0  0  0  0  0  0  0
  1  5  1  0
  2  9  1  0
  3 10  1  0
  4 15  1  0
  5 16  1  0
  6  9  2  0
  6 12  1  0
  7  9  1  0
  7 13  2  0
  8 10  1  0
  8 11  1  0
 10 14  1  0
 11 12  2  0
 11 13  1  0
 12 15  1  0
 13 16  1  0
  1 17  1  0
  1 18  1  0
  1 19  1  0
  2 20  1  0
  2 21  1  0
  2 22  1  0
  3 23  1  0
  3 24  1  0
  3 25  1  0
  4 26  1  0
  4 27  1  0
  4 28  1  0
  5 29  1  0
  5 30  1  0
  6 31  1  0
  7 32  1  0
  8 33  1  0
  8 34  1  0
 10 35  1  0
 14 36  1  0
 14 37  1  0
M  END
