
     RDKit          3D

 35 36  0  0  0  0  0  0  0  0999 V2000
   -4.0530    0.1289   -2.4426 C   0  0  0  0  0  0  0  0  0  0  0  0
    5.4818   -1.5950   -0.6182 C   0  0  0  0  0  0  0  0  0  0  0  0
    1.7926    0.4427   -0.2042 C   0  0  0  0  0  0  0  0  0  0  0  0
    1.7398   -0.2957    2.1017 C   0  0  0  0  0  0  0  0  0  0  0  0
    3.0074   -0.2257   -0.3928 C   0  0  0  0  0  0  0  0  0  0  0  0
    2.9508   -0.9627    1.9063 C   0  0  0  0  0  0  0  0  0  0  0  0
   -2.7471   -0.8227   -0.6196 C   0  0  0  0  0  0  0  0  0  0  0  0
   -3.3193    1.5656   -0.6409 C   0  0  0  0  0  0  0  0  0  0  0  0
   -1.2983   -0.3159   -0.4746 C   0  0  0  0  0  0  0  0  0  0  0  0
   -2.4284    1.6139    0.6114 C   0  0  0  0  0  0  0  0  0  0  0  0
    1.1520    0.3900    1.0378 C   0  0  0  0  0  0  0  0  0  0  0  0
    3.5886   -0.9347    0.6614 C   0  0  0  0  0  0  0  0  0  0  0  0
   -0.1236    1.1056    1.2654 C   0  0  0  0  0  0  0  0  0  0  0  0
   -3.7350    0.1981   -1.0196 N   0  0  0  0  0  0  0  0  0  0  0  0
   -1.1995    0.8397    0.4268 N   0  0  0  0  0  0  0  0  0  0  0  0
   -0.1714    1.9117    2.1912 O   0  0  0  0  0  0  0  0  0  0  0  0
    4.7653   -1.6297    0.6096 O   0  0  0  0  0  0  0  0  0  0  0  0
   -3.1712    0.2978   -3.0710 H   0  0  0  0  0  0  0  0  0  0  0  0
   -4.8132    0.8733   -2.7046 H   0  0  0  0  0  0  0  0  0  0  0  0
   -4.4738   -0.8506   -2.6953 H   0  0  0  0  0  0  0  0  0  0  0  0
    4.9036   -2.0572   -1.4250 H   0  0  0  0  0  0  0  0  0  0  0  0
    6.3974   -2.1798   -0.4876 H   0  0  0  0  0  0  0  0  0  0  0  0
    5.7741   -0.5718   -0.8764 H   0  0  0  0  0  0  0  0  0  0  0  0
    1.3595    1.0147   -1.0205 H   0  0  0  0  0  0  0  0  0  0  0  0
    1.2603   -0.3089    3.0775 H   0  0  0  0  0  0  0  0  0  0  0  0
    3.4770   -0.1659   -1.3690 H   0  0  0  0  0  0  0  0  0  0  0  0
    3.4071   -1.5020    2.7333 H   0  0  0  0  0  0  0  0  0  0  0  0
   -2.7697   -1.6878   -1.2937 H   0  0  0  0  0  0  0  0  0  0  0  0
   -3.0675   -1.2047    0.3588 H   0  0  0  0  0  0  0  0  0  0  0  0
   -4.2162    2.1723   -0.4723 H   0  0  0  0  0  0  0  0  0  0  0  0
   -2.7597    2.0335   -1.4627 H   0  0  0  0  0  0  0  0  0  0  0  0
   -0.9180    0.0021   -1.4521 H   0  0  0  0  0  0  0  0  0  0  0  0
   -0.6660   -1.1308   -0.1089 H   0  0  0  0  0  0  0  0  0  0  0  0
   -2.1702    2.6524    0.8479 H   0  0  0  0  0  0  0  0  0  0  0  0
   -2.9561    1.1991    1.4789 H   0  0  0  0  0  0  0  0  0  0  0  0
  1 14  1  0
  2 17  1  0
  3  5  2  0
  3 11  1  0
  4  6  1  0
  4 11  2  0
  5 12  1  0
  6 12  2  0
  7  9  1  0
  7 14  1  0
  8 10  1  0
  8 14  1  0
  9 15  1  0
 10 15  1  0
 11 13  1  0
 12 17  1  0
 13 15  1  0
 13 16  2  0
  1 18  1  0
  1 19  1  0
  1 20  1  0
  2 21  1  0
  2 22  1  0
  2 23  1  0
  3 24  1  0
  4 25  1  0
  5 26  1  0
  6 27  1  0
  7 28  1  0
  7 29  1  0
  8 30  1  0
  8 31  1  0
  9 32  1  0
  9 33  1  0
 10 34  1  0
 10 35  1  0
M  END
