
     RDKit          3D

 38 38  0  0  0  0  0  0  0  0999 V2000
   -2.2380   -1.6432   -0.2397 C   0  0  0  0  0  0  0  0  0  0  0  0
   -3.7523    1.2325    0.0169 C   0  0  0  0  0  0  0  0  0  0  0  0
   -1.8259    0.7459    1.3499 C   0  0  0  0  0  0  0  0  0  0  0  0
    3.9339   -2.7475    1.3464 C   0  0  0  0  0  0  0  0  0  0  0  0
    0.7337    3.2782   -0.2040 C   0  0  0  0  0  0  0  0  0  0  0  0
    2.9950   -0.2107    0.4973 C   0  0  0  0  0  0  0  0  0  0  0  0
    2.4722    1.0050    0.0461 C   0  0  0  0  0  0  0  0  0  0  0  0
    1.1262   -1.3616   -0.4899 C   0  0  0  0  0  0  0  0  0  0  0  0
   -2.0617   -0.2668   -0.9047 C   0  0  0  0  0  0  0  0  0  0  0  0
    2.3224   -1.4005    0.2324 C   0  0  0  0  0  0  0  0  0  0  0  0
    0.5771   -0.1482   -0.9469 C   0  0  0  0  0  0  0  0  0  0  0  0
    1.2647    1.0412   -0.6585 C   0  0  0  0  0  0  0  0  0  0  0  0
   -0.7267   -0.1379   -1.7238 C   0  0  0  0  0  0  0  0  0  0  0  0
   -2.3266    0.8991   -0.0155 N   0  0  0  0  0  0  0  0  0  0  0  0
   -0.6805   -1.1755   -2.7227 O   0  0  0  0  0  0  0  0  0  0  0  0
    2.7219   -2.6527    0.6090 O   0  0  0  0  0  0  0  0  0  0  0  0
    0.7518    2.2126   -1.1502 O   0  0  0  0  0  0  0  0  0  0  0  0
   -3.2367   -1.7385    0.2003 H   0  0  0  0  0  0  0  0  0  0  0  0
   -2.1366   -2.4480   -0.9754 H   0  0  0  0  0  0  0  0  0  0  0  0
   -1.5056   -1.8228    0.5524 H   0  0  0  0  0  0  0  0  0  0  0  0
   -4.1194    1.4631   -0.9894 H   0  0  0  0  0  0  0  0  0  0  0  0
   -3.9241    2.1319    0.6192 H   0  0  0  0  0  0  0  0  0  0  0  0
   -4.3606    0.4210    0.4312 H   0  0  0  0  0  0  0  0  0  0  0  0
   -0.7676    0.4766    1.3734 H   0  0  0  0  0  0  0  0  0  0  0  0
   -2.3831   -0.0052    1.9211 H   0  0  0  0  0  0  0  0  0  0  0  0
   -1.9090    1.6982    1.8866 H   0  0  0  0  0  0  0  0  0  0  0  0
    4.7839   -2.3898    0.7561 H   0  0  0  0  0  0  0  0  0  0  0  0
    4.1064   -3.8044    1.5716 H   0  0  0  0  0  0  0  0  0  0  0  0
    3.8597   -2.2120    2.2987 H   0  0  0  0  0  0  0  0  0  0  0  0
    1.7093    3.7726   -0.1652 H   0  0  0  0  0  0  0  0  0  0  0  0
   -0.0010    4.0142   -0.5442 H   0  0  0  0  0  0  0  0  0  0  0  0
    0.4321    2.9388    0.7933 H   0  0  0  0  0  0  0  0  0  0  0  0
    3.9336   -0.1917    1.0405 H   0  0  0  0  0  0  0  0  0  0  0  0
    3.0328    1.9156    0.2345 H   0  0  0  0  0  0  0  0  0  0  0  0
    0.6150   -2.2995   -0.7025 H   0  0  0  0  0  0  0  0  0  0  0  0
   -2.8314   -0.2502   -1.6920 H   0  0  0  0  0  0  0  0  0  0  0  0
   -0.7929    0.7895   -2.3055 H   0  0  0  0  0  0  0  0  0  0  0  0
    0.2080   -1.1294   -3.1171 H   0  0  0  0  0  0  0  0  0  0  0  0
  1  9  1  0
  2 14  1  0
  3 14  1  0
  4 16  1  0
  5 17  1  0
  6  7  2  0
  6 10  1  0
  7 12  1  0
  8 10  2  0
  8 11  1  0
  9 13  1  0
  9 14  1  0
 10 16  1  0
 11 12  2  0
 11 13  1  0
 12 17  1  0
 13 15  1  0
  1 18  1  0
  1 19  1  0
  1 20  1  0
  2 21  1  0
  2 22  1  0
  2 23  1  0
  3 24  1  0
  3 25  1  0
  3 26  1  0
  4 27  1  0
  4 28  1  0
  4 29  1  0
  5 30  1  0
  5 31  1  0
  5 32  1  0
  6 33  1  0
  7 34  1  0
  8 35  1  0
  9 36  1  0
 13 37  1  0
 15 38  1  0
M  END
