
     RDKit          3D

 40 40  0  0  0  0  0  0  0  0999 V2000
    0.4912    2.6637   -2.4230 C   0  0  0  0  0  0  0  0  0  0  0  0
    1.1038   -2.7010    1.6480 C   0  0  0  0  0  0  0  0  0  0  0  0
   -2.0890    2.9235    0.3070 C   0  0  0  0  0  0  0  0  0  0  0  0
   -1.7445   -3.2668   -0.8189 C   0  0  0  0  0  0  0  0  0  0  0  0
   -3.6705   -0.6906    1.0848 C   0  0  0  0  0  0  0  0  0  0  0  0
    2.5510    0.1033   -0.4936 C   0  0  0  0  0  0  0  0  0  0  0  0
    3.1451    0.6715    0.7992 C   0  0  0  0  0  0  0  0  0  0  0  0
    1.0420   -0.0030   -0.4094 C   0  0  0  0  0  0  0  0  0  0  0  0
    0.2282    1.0994   -0.7263 C   0  0  0  0  0  0  0  0  0  0  0  0
    0.4236   -1.1938    0.0128 C   0  0  0  0  0  0  0  0  0  0  0  0
   -1.1676    1.0224   -0.5852 C   0  0  0  0  0  0  0  0  0  0  0  0
   -0.9783   -1.2976    0.0615 C   0  0  0  0  0  0  0  0  0  0  0  0
   -1.7781   -0.1766   -0.1944 C   0  0  0  0  0  0  0  0  0  0  0  0
    4.6007    0.7950    0.7096 N   0  0  0  0  0  0  0  0  0  0  0  0
    0.8561    2.2641   -1.1004 O   0  0  0  0  0  0  0  0  0  0  0  0
    1.2368   -2.2653    0.2950 O   0  0  0  0  0  0  0  0  0  0  0  0
   -1.9537    2.1161   -0.8621 O   0  0  0  0  0  0  0  0  0  0  0  0
   -1.5612   -2.5017    0.3745 O   0  0  0  0  0  0  0  0  0  0  0  0
   -3.1508   -0.1958   -0.1473 O   0  0  0  0  0  0  0  0  0  0  0  0
    0.2718    1.8119   -3.0774 H   0  0  0  0  0  0  0  0  0  0  0  0
   -0.3577    3.3526   -2.3914 H   0  0  0  0  0  0  0  0  0  0  0  0
    1.3411    3.2038   -2.8513 H   0  0  0  0  0  0  0  0  0  0  0  0
    0.8712   -1.8792    2.3355 H   0  0  0  0  0  0  0  0  0  0  0  0
    2.0627   -3.1310    1.9533 H   0  0  0  0  0  0  0  0  0  0  0  0
    0.3480   -3.4881    1.7219 H   0  0  0  0  0  0  0  0  0  0  0  0
   -2.7458    3.7628    0.0592 H   0  0  0  0  0  0  0  0  0  0  0  0
   -2.5507    2.3645    1.1284 H   0  0  0  0  0  0  0  0  0  0  0  0
   -1.1231    3.3325    0.6222 H   0  0  0  0  0  0  0  0  0  0  0  0
   -2.2319   -4.2059   -0.5403 H   0  0  0  0  0  0  0  0  0  0  0  0
   -2.3957   -2.7461   -1.5297 H   0  0  0  0  0  0  0  0  0  0  0  0
   -0.7850   -3.5103   -1.2879 H   0  0  0  0  0  0  0  0  0  0  0  0
   -4.6197   -0.1792    1.2728 H   0  0  0  0  0  0  0  0  0  0  0  0
   -3.0099   -0.4889    1.9360 H   0  0  0  0  0  0  0  0  0  0  0  0
   -3.8831   -1.7603    1.0039 H   0  0  0  0  0  0  0  0  0  0  0  0
    2.9899   -0.8781   -0.7128 H   0  0  0  0  0  0  0  0  0  0  0  0
    2.8279    0.7316   -1.3502 H   0  0  0  0  0  0  0  0  0  0  0  0
    2.8995    0.0204    1.6457 H   0  0  0  0  0  0  0  0  0  0  0  0
    2.7189    1.6576    1.0168 H   0  0  0  0  0  0  0  0  0  0  0  0
    4.9505    1.2289    1.5628 H   0  0  0  0  0  0  0  0  0  0  0  0
    4.8364    1.4339   -0.0493 H   0  0  0  0  0  0  0  0  0  0  0  0
  1 15  1  0
  2 16  1  0
  3 17  1  0
  4 18  1  0
  5 19  1  0
  6  7  1  0
  6  8  1  0
  7 14  1  0
  8  9  2  0
  8 10  1  0
  9 11  1  0
  9 15  1  0
 10 12  2  0
 10 16  1  0
 11 13  2  0
 11 17  1  0
 12 13  1  0
 12 18  1  0
 13 19  1  0
  1 20  1  0
  1 21  1  0
  1 22  1  0
  2 23  1  0
  2 24  1  0
  2 25  1  0
  3 26  1  0
  3 27  1  0
  3 28  1  0
  4 29  1  0
  4 30  1  0
  4 31  1  0
  5 32  1  0
  5 33  1  0
  5 34  1  0
  6 35  1  0
  6 36  1  0
  7 37  1  0
  7 38  1  0
 14 39  1  0
 14 40  1  0
M  END
