
     RDKit          3D

 32 34  0  0  0  0  0  0  0  0999 V2000
    4.0882   -0.1359   -0.2598 C   0  0  0  0  0  0  0  0  0  0  0  0
    0.1482    2.5457    0.8275 C   0  0  0  0  0  0  0  0  0  0  0  0
   -2.4512   -2.0816   -1.0024 C   0  0  0  0  0  0  0  0  0  0  0  0
   -0.9162    3.1318    1.4699 C   0  0  0  0  0  0  0  0  0  0  0  0
   -1.3873   -2.6649   -1.6479 C   0  0  0  0  0  0  0  0  0  0  0  0
    1.6814    0.2514   -0.8914 C   0  0  0  0  0  0  0  0  0  0  0  0
    2.6415   -0.1990    0.2318 C   0  0  0  0  0  0  0  0  0  0  0  0
   -0.3306    1.3219    0.2810 C   0  0  0  0  0  0  0  0  0  0  0  0
   -1.9763   -0.8555   -0.4539 C   0  0  0  0  0  0  0  0  0  0  0  0
    0.2258    0.2687   -0.4741 C   0  0  0  0  0  0  0  0  0  0  0  0
   -2.5280    0.1991    0.3038 C   0  0  0  0  0  0  0  0  0  0  0  0
   -0.6330   -0.7863   -0.8133 C   0  0  0  0  0  0  0  0  0  0  0  0
   -1.6724    1.2522    0.6392 C   0  0  0  0  0  0  0  0  0  0  0  0
   -3.9591    0.2416    0.7521 C   0  0  0  0  0  0  0  0  0  0  0  0
   -4.6404    1.3090    0.2480 F   0  0  0  0  0  0  0  0  0  0  0  0
   -4.6846   -0.8526    0.3783 F   0  0  0  0  0  0  0  0  0  0  0  0
   -4.0926    0.3119    2.1063 F   0  0  0  0  0  0  0  0  0  0  0  0
    2.3455   -1.5546    0.7044 N   0  0  0  0  0  0  0  0  0  0  0  0
   -0.2832   -1.8863   -1.5408 O   0  0  0  0  0  0  0  0  0  0  0  0
   -2.0228    2.3554    1.3589 O   0  0  0  0  0  0  0  0  0  0  0  0
    4.2554   -0.8133   -1.1048 H   0  0  0  0  0  0  0  0  0  0  0  0
    4.7878   -0.4103    0.5377 H   0  0  0  0  0  0  0  0  0  0  0  0
    4.3416    0.8787   -0.5855 H   0  0  0  0  0  0  0  0  0  0  0  0
    1.1482    2.9494    0.7615 H   0  0  0  0  0  0  0  0  0  0  0  0
   -3.4484   -2.4948   -0.9359 H   0  0  0  0  0  0  0  0  0  0  0  0
   -1.0440    4.0510    2.0249 H   0  0  0  0  0  0  0  0  0  0  0  0
   -1.2600   -3.5845   -2.2020 H   0  0  0  0  0  0  0  0  0  0  0  0
    1.9563    1.2615   -1.2223 H   0  0  0  0  0  0  0  0  0  0  0  0
    1.8061   -0.3918   -1.7725 H   0  0  0  0  0  0  0  0  0  0  0  0
    2.5405    0.4787    1.0876 H   0  0  0  0  0  0  0  0  0  0  0  0
    3.1071   -1.9060    1.2817 H   0  0  0  0  0  0  0  0  0  0  0  0
    2.2565   -2.1907   -0.0880 H   0  0  0  0  0  0  0  0  0  0  0  0
  1  7  1  0
  2  4  2  0
  2  8  1  0
  3  5  2  0
  3  9  1  0
  4 20  1  0
  5 19  1  0
  6  7  1  0
  6 10  1  0
  7 18  1  0
  8 10  2  0
  8 13  1  0
  9 11  1  0
  9 12  2  0
 10 12  1  0
 11 13  2  0
 11 14  1  0
 12 19  1  0
 13 20  1  0
 14 15  1  0
 14 16  1  0
 14 17  1  0
  1 21  1  0
  1 22  1  0
  1 23  1  0
  2 24  1  0
  3 25  1  0
  4 26  1  0
  5 27  1  0
  6 28  1  0
  6 29  1  0
  7 30  1  0
 18 31  1  0
 18 32  1  0
M  END
