
     RDKit          3D

 37 38  0  0  0  0  0  0  0  0999 V2000
   -3.1242   -1.8975    1.0262 C   0  0  0  0  0  0  0  0  0  0  0  0
   -3.4874    1.3701    0.2024 C   0  0  0  0  0  0  0  0  0  0  0  0
   -2.1173   -0.7810   -2.0169 C   0  0  0  0  0  0  0  0  0  0  0  0
   -1.6734   -1.4395    0.9289 C   0  0  0  0  0  0  0  0  0  0  0  0
   -2.1816    0.9951    0.8927 C   0  0  0  0  0  0  0  0  0  0  0  0
    1.4781    1.3119   -0.2412 C   0  0  0  0  0  0  0  0  0  0  0  0
    2.6343    1.9111    0.2753 C   0  0  0  0  0  0  0  0  0  0  0  0
    2.7215   -0.7168   -0.7544 C   0  0  0  0  0  0  0  0  0  0  0  0
    5.8200    0.4350    0.4486 C   0  0  0  0  0  0  0  0  0  0  0  0
   -1.1072   -0.0767   -1.1019 C   0  0  0  0  0  0  0  0  0  0  0  0
    1.5104   -0.0031   -0.7535 C   0  0  0  0  0  0  0  0  0  0  0  0
    3.7996    1.1777    0.2622 C   0  0  0  0  0  0  0  0  0  0  0  0
    3.8421   -0.1005   -0.2394 C   0  0  0  0  0  0  0  0  0  0  0  0
    0.3005   -0.6818   -1.3232 C   0  0  0  0  0  0  0  0  0  0  0  0
   -1.4340   -0.1259    0.3327 N   0  0  0  0  0  0  0  0  0  0  0  0
    0.4713   -1.7218   -1.9643 O   0  0  0  0  0  0  0  0  0  0  0  0
    5.0089    1.5978    0.7189 O   0  0  0  0  0  0  0  0  0  0  0  0
    5.0851   -0.6463   -0.1610 O   0  0  0  0  0  0  0  0  0  0  0  0
   -3.1632   -2.9121    1.4372 H   0  0  0  0  0  0  0  0  0  0  0  0
   -3.6169   -1.9189    0.0510 H   0  0  0  0  0  0  0  0  0  0  0  0
   -3.7049   -1.2562    1.6962 H   0  0  0  0  0  0  0  0  0  0  0  0
   -3.9758    2.1807    0.7540 H   0  0  0  0  0  0  0  0  0  0  0  0
   -4.1884    0.5330    0.1603 H   0  0  0  0  0  0  0  0  0  0  0  0
   -3.3138    1.7319   -0.8156 H   0  0  0  0  0  0  0  0  0  0  0  0
   -1.8323   -0.6440   -3.0668 H   0  0  0  0  0  0  0  0  0  0  0  0
   -2.1548   -1.8610   -1.8391 H   0  0  0  0  0  0  0  0  0  0  0  0
   -3.1271   -0.3797   -1.9008 H   0  0  0  0  0  0  0  0  0  0  0  0
   -1.2619   -1.4216    1.9464 H   0  0  0  0  0  0  0  0  0  0  0  0
   -1.0943   -2.2123    0.4096 H   0  0  0  0  0  0  0  0  0  0  0  0
   -1.5337    1.8798    0.8747 H   0  0  0  0  0  0  0  0  0  0  0  0
   -2.3777    0.8190    1.9580 H   0  0  0  0  0  0  0  0  0  0  0  0
    0.5618    1.8925   -0.2348 H   0  0  0  0  0  0  0  0  0  0  0  0
    2.6154    2.9198    0.6730 H   0  0  0  0  0  0  0  0  0  0  0  0
    2.7837   -1.7277   -1.1454 H   0  0  0  0  0  0  0  0  0  0  0  0
    6.2488    0.0795    1.3926 H   0  0  0  0  0  0  0  0  0  0  0  0
    6.6370    0.7257   -0.2217 H   0  0  0  0  0  0  0  0  0  0  0  0
   -1.0486    0.9640   -1.4445 H   0  0  0  0  0  0  0  0  0  0  0  0
  1  4  1  0
  2  5  1  0
  3 10  1  0
  4 15  1  0
  5 15  1  0
  6  7  2  0
  6 11  1  0
  7 12  1  0
  8 11  2  0
  8 13  1  0
  9 17  1  0
  9 18  1  0
 10 14  1  0
 10 15  1  0
 11 14  1  0
 12 13  2  0
 12 17  1  0
 13 18  1  0
 14 16  2  0
  1 19  1  0
  1 20  1  0
  1 21  1  0
  2 22  1  0
  2 23  1  0
  2 24  1  0
  3 25  1  0
  3 26  1  0
  3 27  1  0
  4 28  1  0
  4 29  1  0
  5 30  1  0
  5 31  1  0
  6 32  1  0
  7 33  1  0
  8 34  1  0
  9 35  1  0
  9 36  1  0
 10 37  1  0
M  END
