
     RDKit          3D

 37 38  0  0  0  0  0  0  0  0999 V2000
   -3.9486    1.2979    1.3070 C   0  0  0  0  0  0  0  0  0  0  0  0
   -2.8347   -2.0318   -0.3615 C   0  0  0  0  0  0  0  0  0  0  0  0
   -0.4288   -0.1978   -2.1091 C   0  0  0  0  0  0  0  0  0  0  0  0
   -3.7776   -0.1975    1.0671 C   0  0  0  0  0  0  0  0  0  0  0  0
    2.6966    2.0234   -0.1849 C   0  0  0  0  0  0  0  0  0  0  0  0
    4.0177    1.6364    0.0650 C   0  0  0  0  0  0  0  0  0  0  0  0
    1.9046   -0.2453    0.1917 C   0  0  0  0  0  0  0  0  0  0  0  0
    5.0712   -1.6114    0.8971 C   0  0  0  0  0  0  0  0  0  0  0  0
   -2.8545   -0.5185   -0.1236 C   0  0  0  0  0  0  0  0  0  0  0  0
   -0.8675    0.6895   -0.9466 C   0  0  0  0  0  0  0  0  0  0  0  0
    1.6332    1.0882   -0.1338 C   0  0  0  0  0  0  0  0  0  0  0  0
    4.2453    0.3146    0.3700 C   0  0  0  0  0  0  0  0  0  0  0  0
    3.2184   -0.5967    0.4329 C   0  0  0  0  0  0  0  0  0  0  0  0
    0.2559    1.6024   -0.4143 C   0  0  0  0  0  0  0  0  0  0  0  0
   -1.5028   -0.0279    0.1708 N   0  0  0  0  0  0  0  0  0  0  0  0
    0.0493    2.8051   -0.2241 O   0  0  0  0  0  0  0  0  0  0  0  0
    5.4534   -0.2438    0.6435 O   0  0  0  0  0  0  0  0  0  0  0  0
    3.6533   -1.8449    0.7565 O   0  0  0  0  0  0  0  0  0  0  0  0
   -3.0042    1.7708    1.5932 H   0  0  0  0  0  0  0  0  0  0  0  0
   -4.3272    1.7973    0.4095 H   0  0  0  0  0  0  0  0  0  0  0  0
   -4.6652    1.4683    2.1169 H   0  0  0  0  0  0  0  0  0  0  0  0
   -2.4695   -2.5730    0.5187 H   0  0  0  0  0  0  0  0  0  0  0  0
   -2.1952   -2.2968   -1.2090 H   0  0  0  0  0  0  0  0  0  0  0  0
   -3.8428   -2.3988   -0.5835 H   0  0  0  0  0  0  0  0  0  0  0  0
   -1.2974   -0.5483   -2.6768 H   0  0  0  0  0  0  0  0  0  0  0  0
    0.2175    0.3537   -2.8006 H   0  0  0  0  0  0  0  0  0  0  0  0
    0.1200   -1.0841   -1.7784 H   0  0  0  0  0  0  0  0  0  0  0  0
   -3.3973   -0.6664    1.9837 H   0  0  0  0  0  0  0  0  0  0  0  0
   -4.7685   -0.6308    0.8817 H   0  0  0  0  0  0  0  0  0  0  0  0
    2.4897    3.0672   -0.4208 H   0  0  0  0  0  0  0  0  0  0  0  0
    4.8307    2.3527    0.0251 H   0  0  0  0  0  0  0  0  0  0  0  0
    1.1398   -1.0028    0.2769 H   0  0  0  0  0  0  0  0  0  0  0  0
    5.6044   -2.2610    0.1934 H   0  0  0  0  0  0  0  0  0  0  0  0
    5.3707   -1.8766    1.9176 H   0  0  0  0  0  0  0  0  0  0  0  0
   -3.2721   -0.0338   -1.0151 H   0  0  0  0  0  0  0  0  0  0  0  0
   -1.5971    1.4016   -1.3596 H   0  0  0  0  0  0  0  0  0  0  0  0
   -0.9207   -0.7811    0.5233 H   0  0  0  0  0  0  0  0  0  0  0  0
  1  4  1  0
  2  9  1  0
  3 10  1  0
  4  9  1  0
  5  6  2  0
  5 11  1  0
  6 12  1  0
  7 11  2  0
  7 13  1  0
  8 17  1  0
  8 18  1  0
  9 15  1  0
 10 14  1  0
 10 15  1  0
 11 14  1  0
 12 13  2  0
 12 17  1  0
 13 18  1  0
 14 16  2  0
  1 19  1  0
  1 20  1  0
  1 21  1  0
  2 22  1  0
  2 23  1  0
  2 24  1  0
  3 25  1  0
  3 26  1  0
  3 27  1  0
  4 28  1  0
  4 29  1  0
  5 30  1  0
  6 31  1  0
  7 32  1  0
  8 33  1  0
  8 34  1  0
  9 35  1  0
 10 36  1  0
 15 37  1  0
M  END
