
     RDKit          3D

 37 38  0  0  0  0  0  0  0  0999 V2000
    0.4019    2.5923    0.2175 C   0  0  0  0  0  0  0  0  0  0  0  0
    4.4763   -0.5466   -0.8488 C   0  0  0  0  0  0  0  0  0  0  0  0
   -4.7349   -1.6350    0.7889 C   0  0  0  0  0  0  0  0  0  0  0  0
   -4.5686   -0.8648    1.9352 C   0  0  0  0  0  0  0  0  0  0  0  0
   -3.8388   -1.5080   -0.2711 C   0  0  0  0  0  0  0  0  0  0  0  0
   -3.5067    0.0357    2.0202 C   0  0  0  0  0  0  0  0  0  0  0  0
   -2.7722   -0.6072   -0.1863 C   0  0  0  0  0  0  0  0  0  0  0  0
    2.1734   -1.1557   -1.3698 C   0  0  0  0  0  0  0  0  0  0  0  0
    2.7419   -0.1464    0.7831 C   0  0  0  0  0  0  0  0  0  0  0  0
    1.1279   -0.0180   -1.3841 C   0  0  0  0  0  0  0  0  0  0  0  0
    1.2227   -0.2485    1.0504 C   0  0  0  0  0  0  0  0  0  0  0  0
   -0.4186    1.3112   -0.0013 C   0  0  0  0  0  0  0  0  0  0  0  0
   -2.5946    0.1699    0.9624 C   0  0  0  0  0  0  0  0  0  0  0  0
   -1.4698    1.1542    1.1207 C   0  0  0  0  0  0  0  0  0  0  0  0
    3.2006   -1.0191   -0.3167 N   0  0  0  0  0  0  0  0  0  0  0  0
    0.3807    0.0754   -0.1180 N   0  0  0  0  0  0  0  0  0  0  0  0
   -1.4229    1.8294    2.1513 O   0  0  0  0  0  0  0  0  0  0  0  0
    1.0978    2.7781   -0.6060 H   0  0  0  0  0  0  0  0  0  0  0  0
   -0.2649    3.4608    0.2769 H   0  0  0  0  0  0  0  0  0  0  0  0
    0.9755    2.5663    1.1491 H   0  0  0  0  0  0  0  0  0  0  0  0
    5.2320   -0.4978   -0.0554 H   0  0  0  0  0  0  0  0  0  0  0  0
    4.8587   -1.2429   -1.6010 H   0  0  0  0  0  0  0  0  0  0  0  0
    4.3911    0.4447   -1.3084 H   0  0  0  0  0  0  0  0  0  0  0  0
   -5.5654   -2.3324    0.7215 H   0  0  0  0  0  0  0  0  0  0  0  0
   -5.2644   -0.9624    2.7656 H   0  0  0  0  0  0  0  0  0  0  0  0
   -3.9681   -2.1132   -1.1665 H   0  0  0  0  0  0  0  0  0  0  0  0
   -3.3914    0.6334    2.9245 H   0  0  0  0  0  0  0  0  0  0  0  0
   -2.0907   -0.5441   -1.0282 H   0  0  0  0  0  0  0  0  0  0  0  0
    1.6542   -2.1051   -1.1965 H   0  0  0  0  0  0  0  0  0  0  0  0
    2.6260   -1.2465   -2.3669 H   0  0  0  0  0  0  0  0  0  0  0  0
    2.9790    0.9040    0.5703 H   0  0  0  0  0  0  0  0  0  0  0  0
    3.2844   -0.4192    1.6960 H   0  0  0  0  0  0  0  0  0  0  0  0
    0.4208   -0.1981   -2.2015 H   0  0  0  0  0  0  0  0  0  0  0  0
    1.6513    0.9178   -1.6125 H   0  0  0  0  0  0  0  0  0  0  0  0
    0.9925   -1.2837    1.3357 H   0  0  0  0  0  0  0  0  0  0  0  0
    0.9710    0.3565    1.9282 H   0  0  0  0  0  0  0  0  0  0  0  0
   -0.9877    1.4652   -0.9290 H   0  0  0  0  0  0  0  0  0  0  0  0
  1 12  1  0
  2 15  1  0
  3  4  2  0
  3  5  1  0
  4  6  1  0
  5  7  2  0
  6 13  2  0
  7 13  1  0
  8 10  1  0
  8 15  1  0
  9 11  1  0
  9 15  1  0
 10 16  1  0
 11 16  1  0
 12 14  1  0
 12 16  1  0
 13 14  1  0
 14 17  2  0
  1 18  1  0
  1 19  1  0
  1 20  1  0
  2 21  1  0
  2 22  1  0
  2 23  1  0
  3 24  1  0
  4 25  1  0
  5 26  1  0
  6 27  1  0
  7 28  1  0
  8 29  1  0
  8 30  1  0
  9 31  1  0
  9 32  1  0
 10 33  1  0
 10 34  1  0
 11 35  1  0
 11 36  1  0
 12 37  1  0
M  END
