
     RDKit          3D

 38 39  0  0  0  0  0  0  0  0999 V2000
   -4.8139    1.2221    1.3869 C   0  0  0  0  0  0  0  0  0  0  0  0
   -0.1666   -1.4483   -1.9803 C   0  0  0  0  0  0  0  0  0  0  0  0
   -4.6415    0.0160    0.4767 C   0  0  0  0  0  0  0  0  0  0  0  0
   -3.2606   -0.0663   -0.1797 C   0  0  0  0  0  0  0  0  0  0  0  0
   -2.1254   -0.3044    0.8259 C   0  0  0  0  0  0  0  0  0  0  0  0
    2.6183   -1.3185    0.5185 C   0  0  0  0  0  0  0  0  0  0  0  0
    3.9151   -1.1385    0.0275 C   0  0  0  0  0  0  0  0  0  0  0  0
    0.3577   -0.4335    1.2553 C   0  0  0  0  0  0  0  0  0  0  0  0
    2.2151    1.0821    0.4462 C   0  0  0  0  0  0  0  0  0  0  0  0
    5.3907    1.9438   -0.7933 C   0  0  0  0  0  0  0  0  0  0  0  0
    1.7612   -0.2154    0.7339 C   0  0  0  0  0  0  0  0  0  0  0  0
   -0.7354   -0.4363    0.1563 C   0  0  0  0  0  0  0  0  0  0  0  0
    4.3252    0.1488   -0.2394 C   0  0  0  0  0  0  0  0  0  0  0  0
    3.4985    1.2284   -0.0366 C   0  0  0  0  0  0  0  0  0  0  0  0
   -0.6576   -1.6845   -0.6278 N   0  0  0  0  0  0  0  0  0  0  0  0
    5.5444    0.5115   -0.7207 O   0  0  0  0  0  0  0  0  0  0  0  0
    4.0934    2.4068   -0.3647 O   0  0  0  0  0  0  0  0  0  0  0  0
   -4.5835    2.1514    0.8566 H   0  0  0  0  0  0  0  0  0  0  0  0
   -5.8489    1.2811    1.7392 H   0  0  0  0  0  0  0  0  0  0  0  0
   -4.1692    1.1563    2.2681 H   0  0  0  0  0  0  0  0  0  0  0  0
    0.8278   -0.9929   -1.9801 H   0  0  0  0  0  0  0  0  0  0  0  0
   -0.0889   -2.4034   -2.5089 H   0  0  0  0  0  0  0  0  0  0  0  0
   -0.8521   -0.8077   -2.5447 H   0  0  0  0  0  0  0  0  0  0  0  0
   -4.8405   -0.9010    1.0435 H   0  0  0  0  0  0  0  0  0  0  0  0
   -5.3981    0.0690   -0.3154 H   0  0  0  0  0  0  0  0  0  0  0  0
   -3.0661    0.8562   -0.7404 H   0  0  0  0  0  0  0  0  0  0  0  0
   -3.2897   -0.8791   -0.9138 H   0  0  0  0  0  0  0  0  0  0  0  0
   -2.3405   -1.2000    1.4234 H   0  0  0  0  0  0  0  0  0  0  0  0
   -2.0944    0.5389    1.5260 H   0  0  0  0  0  0  0  0  0  0  0  0
    2.2622   -2.3267    0.7237 H   0  0  0  0  0  0  0  0  0  0  0  0
    4.5733   -1.9827   -0.1416 H   0  0  0  0  0  0  0  0  0  0  0  0
    0.3173   -1.3659    1.8349 H   0  0  0  0  0  0  0  0  0  0  0  0
    0.1509    0.3633    1.9828 H   0  0  0  0  0  0  0  0  0  0  0  0
    1.5838    1.9510    0.5957 H   0  0  0  0  0  0  0  0  0  0  0  0
    6.1555    2.4108   -0.1619 H   0  0  0  0  0  0  0  0  0  0  0  0
    5.5505    2.2610   -1.8303 H   0  0  0  0  0  0  0  0  0  0  0  0
   -0.6002    0.4438   -0.4874 H   0  0  0  0  0  0  0  0  0  0  0  0
   -1.5678   -2.1372   -0.6839 H   0  0  0  0  0  0  0  0  0  0  0  0
  1  3  1  0
  2 15  1  0
  3  4  1  0
  4  5  1  0
  5 12  1  0
  6  7  2  0
  6 11  1  0
  7 13  1  0
  8 11  1  0
  8 12  1  0
  9 11  2  0
  9 14  1  0
 10 16  1  0
 10 17  1  0
 12 15  1  0
 13 14  2  0
 13 16  1  0
 14 17  1  0
  1 18  1  0
  1 19  1  0
  1 20  1  0
  2 21  1  0
  2 22  1  0
  2 23  1  0
  3 24  1  0
  3 25  1  0
  4 26  1  0
  4 27  1  0
  5 28  1  0
  5 29  1  0
  6 30  1  0
  7 31  1  0
  8 32  1  0
  8 33  1  0
  9 34  1  0
 10 35  1  0
 10 36  1  0
 12 37  1  0
 15 38  1  0
M  END
