
     RDKit          3D

 38 39  0  0  0  0  0  0  0  0999 V2000
    4.0567   -0.9377    0.5719 C   0  0  0  0  0  0  0  0  0  0  0  0
   -3.8185   -0.3996    1.1499 C   0  0  0  0  0  0  0  0  0  0  0  0
   -4.1837    0.4231   -1.0694 C   0  0  0  0  0  0  0  0  0  0  0  0
    2.0108    3.8012    0.0820 C   0  0  0  0  0  0  0  0  0  0  0  0
    1.8683   -3.1968   -0.8585 C   0  0  0  0  0  0  0  0  0  0  0  0
    2.4850    1.0075    0.2678 C   0  0  0  0  0  0  0  0  0  0  0  0
   -1.3286    1.0555   -0.0315 C   0  0  0  0  0  0  0  0  0  0  0  0
   -1.0346   -1.3876    0.1624 C   0  0  0  0  0  0  0  0  0  0  0  0
    2.6694   -0.3907    0.3860 C   0  0  0  0  0  0  0  0  0  0  0  0
   -1.9494   -0.2997   -0.4609 C   0  0  0  0  0  0  0  0  0  0  0  0
    0.1277    0.6987    0.0625 C   0  0  0  0  0  0  0  0  0  0  0  0
    0.2943   -0.6895    0.1599 C   0  0  0  0  0  0  0  0  0  0  0  0
    1.2109    1.5648    0.1122 C   0  0  0  0  0  0  0  0  0  0  0  0
    1.5576   -1.2411    0.2969 C   0  0  0  0  0  0  0  0  0  0  0  0
   -3.3968   -0.4988   -0.2467 N   0  0  0  0  0  0  0  0  0  0  0  0
    0.9184    2.8942    0.0129 O   0  0  0  0  0  0  0  0  0  0  0  0
    1.6989   -2.5943    0.4253 O   0  0  0  0  0  0  0  0  0  0  0  0
    4.7200   -0.1864    1.0137 H   0  0  0  0  0  0  0  0  0  0  0  0
    4.0537   -1.7967    1.2506 H   0  0  0  0  0  0  0  0  0  0  0  0
    4.4727   -1.2423   -0.3931 H   0  0  0  0  0  0  0  0  0  0  0  0
   -4.8855   -0.6367    1.2375 H   0  0  0  0  0  0  0  0  0  0  0  0
   -3.6670    0.6001    1.5696 H   0  0  0  0  0  0  0  0  0  0  0  0
   -3.3013   -1.1255    1.7833 H   0  0  0  0  0  0  0  0  0  0  0  0
   -5.2519    0.1912   -0.9896 H   0  0  0  0  0  0  0  0  0  0  0  0
   -4.0391    1.4696   -0.7790 H   0  0  0  0  0  0  0  0  0  0  0  0
   -3.9233    0.3182   -2.1286 H   0  0  0  0  0  0  0  0  0  0  0  0
    2.5226    3.7306    1.0475 H   0  0  0  0  0  0  0  0  0  0  0  0
    1.6093    4.8152   -0.0080 H   0  0  0  0  0  0  0  0  0  0  0  0
    2.7073    3.6444   -0.7482 H   0  0  0  0  0  0  0  0  0  0  0  0
    2.7940   -2.8591   -1.3363 H   0  0  0  0  0  0  0  0  0  0  0  0
    1.9394   -4.2788   -0.7125 H   0  0  0  0  0  0  0  0  0  0  0  0
    1.0133   -2.9997   -1.5139 H   0  0  0  0  0  0  0  0  0  0  0  0
    3.3646    1.6423    0.3182 H   0  0  0  0  0  0  0  0  0  0  0  0
   -1.6772    1.3924    0.9490 H   0  0  0  0  0  0  0  0  0  0  0  0
   -1.5165    1.8306   -0.7808 H   0  0  0  0  0  0  0  0  0  0  0  0
   -1.2987   -1.6372    1.1937 H   0  0  0  0  0  0  0  0  0  0  0  0
   -1.0377   -2.2954   -0.4475 H   0  0  0  0  0  0  0  0  0  0  0  0
   -1.7850   -0.3862   -1.5484 H   0  0  0  0  0  0  0  0  0  0  0  0
  1  9  1  0
  2 15  1  0
  3 15  1  0
  4 16  1  0
  5 17  1  0
  6  9  2  0
  6 13  1  0
  7 10  1  0
  7 11  1  0
  8 10  1  0
  8 12  1  0
  9 14  1  0
 10 15  1  0
 11 12  1  0
 11 13  2  0
 12 14  2  0
 13 16  1  0
 14 17  1  0
  1 18  1  0
  1 19  1  0
  1 20  1  0
  2 21  1  0
  2 22  1  0
  2 23  1  0
  3 24  1  0
  3 25  1  0
  3 26  1  0
  4 27  1  0
  4 28  1  0
  4 29  1  0
  5 30  1  0
  5 31  1  0
  5 32  1  0
  6 33  1  0
  7 34  1  0
  7 35  1  0
  8 36  1  0
  8 37  1  0
 10 38  1  0
M  END
