
     RDKit          3D

 41 41  0  0  0  0  0  0  0  0999 V2000
    4.1802   -1.6710    0.1226 C   0  0  0  0  0  0  0  0  0  0  0  0
   -2.5782    1.6789   -2.7551 C   0  0  0  0  0  0  0  0  0  0  0  0
   -1.2933   -1.9301    3.2928 C   0  0  0  0  0  0  0  0  0  0  0  0
   -4.6289    0.5857    1.2572 C   0  0  0  0  0  0  0  0  0  0  0  0
    2.7219   -1.7993   -0.2892 C   0  0  0  0  0  0  0  0  0  0  0  0
    2.3016   -0.8030   -1.3757 C   0  0  0  0  0  0  0  0  0  0  0  0
    1.6147    1.1058    0.2579 C   0  0  0  0  0  0  0  0  0  0  0  0
   -0.7575    1.1550   -0.6558 C   0  0  0  0  0  0  0  0  0  0  0  0
   -0.3157   -0.0945    1.3698 C   0  0  0  0  0  0  0  0  0  0  0  0
    0.1531    0.7071    0.3140 C   0  0  0  0  0  0  0  0  0  0  0  0
    2.4266    0.6849   -0.9949 C   0  0  0  0  0  0  0  0  0  0  0  0
   -2.1069    0.7957   -0.5979 C   0  0  0  0  0  0  0  0  0  0  0  0
   -1.6619   -0.4618    1.4520 C   0  0  0  0  0  0  0  0  0  0  0  0
   -2.5534    0.0073    0.4741 C   0  0  0  0  0  0  0  0  0  0  0  0
    2.0926    1.5133   -2.1660 N   0  0  0  0  0  0  0  0  0  0  0  0
   -3.0547    1.1839   -1.5105 O   0  0  0  0  0  0  0  0  0  0  0  0
   -2.2003   -1.2404    2.4445 O   0  0  0  0  0  0  0  0  0  0  0  0
   -3.8754   -0.3796    0.5260 O   0  0  0  0  0  0  0  0  0  0  0  0
    4.4465   -2.4758    0.8154 H   0  0  0  0  0  0  0  0  0  0  0  0
    4.3717   -0.7215    0.6307 H   0  0  0  0  0  0  0  0  0  0  0  0
    4.8421   -1.7398   -0.7464 H   0  0  0  0  0  0  0  0  0  0  0  0
   -3.4378    1.7806   -3.4247 H   0  0  0  0  0  0  0  0  0  0  0  0
   -1.8737    0.9823   -3.2223 H   0  0  0  0  0  0  0  0  0  0  0  0
   -2.1331    2.6717   -2.6350 H   0  0  0  0  0  0  0  0  0  0  0  0
   -1.8770   -2.5976    3.9340 H   0  0  0  0  0  0  0  0  0  0  0  0
   -0.5966   -2.5480    2.7162 H   0  0  0  0  0  0  0  0  0  0  0  0
   -0.7576   -1.2308    3.9427 H   0  0  0  0  0  0  0  0  0  0  0  0
   -4.2731    0.6726    2.2897 H   0  0  0  0  0  0  0  0  0  0  0  0
   -4.6093    1.5649    0.7665 H   0  0  0  0  0  0  0  0  0  0  0  0
   -5.6683    0.2453    1.2871 H   0  0  0  0  0  0  0  0  0  0  0  0
    2.0852   -1.7015    0.5951 H   0  0  0  0  0  0  0  0  0  0  0  0
    2.5593   -2.8133   -0.6745 H   0  0  0  0  0  0  0  0  0  0  0  0
    2.9143   -0.9971   -2.2668 H   0  0  0  0  0  0  0  0  0  0  0  0
    1.2684   -1.0286   -1.6695 H   0  0  0  0  0  0  0  0  0  0  0  0
    1.6686    2.1964    0.3811 H   0  0  0  0  0  0  0  0  0  0  0  0
    2.1286    0.7009    1.1398 H   0  0  0  0  0  0  0  0  0  0  0  0
   -0.3904    1.7922   -1.4534 H   0  0  0  0  0  0  0  0  0  0  0  0
    0.3923   -0.4195    2.1253 H   0  0  0  0  0  0  0  0  0  0  0  0
    3.4806    0.8971   -0.7774 H   0  0  0  0  0  0  0  0  0  0  0  0
    2.3131    2.4884   -1.9662 H   0  0  0  0  0  0  0  0  0  0  0  0
    2.6818    1.2429   -2.9533 H   0  0  0  0  0  0  0  0  0  0  0  0
  1  5  1  0
  2 16  1  0
  3 17  1  0
  4 18  1  0
  5  6  1  0
  6 11  1  0
  7 10  1  0
  7 11  1  0
  8 10  2  0
  8 12  1  0
  9 10  1  0
  9 13  2  0
 11 15  1  0
 12 14  2  0
 12 16  1  0
 13 14  1  0
 13 17  1  0
 14 18  1  0
  1 19  1  0
  1 20  1  0
  1 21  1  0
  2 22  1  0
  2 23  1  0
  2 24  1  0
  3 25  1  0
  3 26  1  0
  3 27  1  0
  4 28  1  0
  4 29  1  0
  4 30  1  0
  5 31  1  0
  5 32  1  0
  6 33  1  0
  6 34  1  0
  7 35  1  0
  7 36  1  0
  8 37  1  0
  9 38  1  0
 11 39  1  0
 15 40  1  0
 15 41  1  0
M  END
