
     RDKit          3D

 29 31  0  0  0  0  0  0  0  0999 V2000
    3.6757   -1.6059    0.7535 C   0  0  0  0  0  0  0  0  0  0  0  0
    4.1584   -0.3467    1.0897 C   0  0  0  0  0  0  0  0  0  0  0  0
    2.3460   -1.7447    0.3646 C   0  0  0  0  0  0  0  0  0  0  0  0
   -2.0120    2.9104   -0.9930 C   0  0  0  0  0  0  0  0  0  0  0  0
   -2.5999    1.9625   -0.1533 C   0  0  0  0  0  0  0  0  0  0  0  0
    3.2878    0.7286    1.0236 C   0  0  0  0  0  0  0  0  0  0  0  0
   -0.0883    1.4724   -1.2446 C   0  0  0  0  0  0  0  0  0  0  0  0
   -1.8538   -2.0559   -0.4156 C   0  0  0  0  0  0  0  0  0  0  0  0
   -0.7605    2.6555   -1.5411 C   0  0  0  0  0  0  0  0  0  0  0  0
   -0.6662    0.5304   -0.3752 C   0  0  0  0  0  0  0  0  0  0  0  0
   -1.9526    0.7560    0.1526 C   0  0  0  0  0  0  0  0  0  0  0  0
    1.5431   -0.6087    0.3193 C   0  0  0  0  0  0  0  0  0  0  0  0
   -2.6280   -1.3912    0.6928 C   0  0  0  0  0  0  0  0  0  0  0  0
    0.0928   -0.7260   -0.0739 C   0  0  0  0  0  0  0  0  0  0  0  0
    0.0341    3.9232   -2.6960 Br  0  0  0  0  0  0  0  0  0  0  0  0
    1.9947    0.6283    0.6467 N   0  0  0  0  0  0  0  0  0  0  0  0
   -0.4248   -1.9151   -0.1264 N   0  0  0  0  0  0  0  0  0  0  0  0
   -2.6663   -0.1334    0.9777 N   0  0  0  0  0  0  0  0  0  0  0  0
   -3.3428   -2.2175    1.4687 O   0  0  0  0  0  0  0  0  0  0  0  0
    4.3255   -2.4755    0.7987 H   0  0  0  0  0  0  0  0  0  0  0  0
    5.1880   -0.2069    1.4007 H   0  0  0  0  0  0  0  0  0  0  0  0
    1.9473   -2.7206    0.1070 H   0  0  0  0  0  0  0  0  0  0  0  0
   -2.5415    3.8335   -1.2137 H   0  0  0  0  0  0  0  0  0  0  0  0
   -3.5846    2.1579    0.2664 H   0  0  0  0  0  0  0  0  0  0  0  0
    3.6182    1.7312    1.2817 H   0  0  0  0  0  0  0  0  0  0  0  0
    0.8892    1.2864   -1.6825 H   0  0  0  0  0  0  0  0  0  0  0  0
   -2.1244   -1.6342   -1.3896 H   0  0  0  0  0  0  0  0  0  0  0  0
   -2.1043   -3.1214   -0.4436 H   0  0  0  0  0  0  0  0  0  0  0  0
   -3.7510   -1.6727    2.1620 H   0  0  0  0  0  0  0  0  0  0  0  0
  1  2  2  0
  1  3  1  0
  2  6  1  0
  3 12  2  0
  4  5  2  0
  4  9  1  0
  5 11  1  0
  6 16  2  0
  7  9  2  0
  7 10  1  0
  8 13  1  0
  8 17  1  0
  9 15  1  0
 10 11  2  0
 10 14  1  0
 11 18  1  0
 12 14  1  0
 12 16  1  0
 13 18  2  0
 13 19  1  0
 14 17  2  0
  1 20  1  0
  2 21  1  0
  3 22  1  0
  4 23  1  0
  5 24  1  0
  6 25  1  0
  7 26  1  0
  8 27  1  0
  8 28  1  0
 19 29  1  0
M  END
