
     RDKit          3D

 43 43  0  0  0  0  0  0  0  0999 V2000
   -2.9772   -0.0553   -2.2636 C   0  0  0  0  0  0  0  0  0  0  0  0
   -4.3061    0.4870    1.7857 C   0  0  0  0  0  0  0  0  0  0  0  0
   -0.5833    1.9851    0.5535 C   0  0  0  0  0  0  0  0  0  0  0  0
    1.0562   -1.7867   -3.2193 C   0  0  0  0  0  0  0  0  0  0  0  0
    4.3083    1.0438    2.7962 C   0  0  0  0  0  0  0  0  0  0  0  0
   -2.9778   -0.5641   -0.8243 C   0  0  0  0  0  0  0  0  0  0  0  0
   -2.8551    0.0980    1.5148 C   0  0  0  0  0  0  0  0  0  0  0  0
   -0.1034   -0.5219    0.6206 C   0  0  0  0  0  0  0  0  0  0  0  0
    2.3239    0.0142    1.0688 C   0  0  0  0  0  0  0  0  0  0  0  0
    3.0800   -0.8794   -1.4630 C   0  0  0  0  0  0  0  0  0  0  0  0
   -0.9702    0.6037   -0.0064 C   0  0  0  0  0  0  0  0  0  0  0  0
    1.3503   -0.4868    0.1820 C   0  0  0  0  0  0  0  0  0  0  0  0
    4.0375   -0.3773   -0.5708 C   0  0  0  0  0  0  0  0  0  0  0  0
    1.7352   -0.9349   -1.0941 C   0  0  0  0  0  0  0  0  0  0  0  0
    3.6719    0.0767    0.7041 C   0  0  0  0  0  0  0  0  0  0  0  0
    6.0364   -0.3363   -1.2295 I   0  0  0  0  0  0  0  0  0  0  0  0
   -2.4426    0.4203    0.1374 N   0  0  0  0  0  0  0  0  0  0  0  0
    0.7257   -1.4112   -1.8884 O   0  0  0  0  0  0  0  0  0  0  0  0
    4.6692    0.5532    1.5121 O   0  0  0  0  0  0  0  0  0  0  0  0
   -1.9684    0.0237   -2.6775 H   0  0  0  0  0  0  0  0  0  0  0  0
   -3.4616    0.9242   -2.3356 H   0  0  0  0  0  0  0  0  0  0  0  0
   -3.5342   -0.7498   -2.9017 H   0  0  0  0  0  0  0  0  0  0  0  0
   -4.5381    0.3385    2.8458 H   0  0  0  0  0  0  0  0  0  0  0  0
   -4.4799    1.5426    1.5512 H   0  0  0  0  0  0  0  0  0  0  0  0
   -5.0140   -0.1154    1.2098 H   0  0  0  0  0  0  0  0  0  0  0  0
    0.4359    2.2534    0.2555 H   0  0  0  0  0  0  0  0  0  0  0  0
   -1.2447    2.7651    0.1591 H   0  0  0  0  0  0  0  0  0  0  0  0
   -0.6283    2.0208    1.6463 H   0  0  0  0  0  0  0  0  0  0  0  0
    0.1318   -2.0931   -3.7183 H   0  0  0  0  0  0  0  0  0  0  0  0
    1.4712   -0.9413   -3.7780 H   0  0  0  0  0  0  0  0  0  0  0  0
    1.7387   -2.6427   -3.2282 H   0  0  0  0  0  0  0  0  0  0  0  0
    3.8793    0.2494    3.4156 H   0  0  0  0  0  0  0  0  0  0  0  0
    5.2209    1.3926    3.2890 H   0  0  0  0  0  0  0  0  0  0  0  0
    3.6270    1.8973    2.7162 H   0  0  0  0  0  0  0  0  0  0  0  0
   -2.4424   -1.5185   -0.7667 H   0  0  0  0  0  0  0  0  0  0  0  0
   -4.0236   -0.7886   -0.5886 H   0  0  0  0  0  0  0  0  0  0  0  0
   -2.7046   -0.9655    1.7385 H   0  0  0  0  0  0  0  0  0  0  0  0
   -2.2538    0.6582    2.2390 H   0  0  0  0  0  0  0  0  0  0  0  0
   -0.1512   -0.4718    1.7162 H   0  0  0  0  0  0  0  0  0  0  0  0
   -0.5025   -1.5107    0.3632 H   0  0  0  0  0  0  0  0  0  0  0  0
    1.9947    0.3553    2.0456 H   0  0  0  0  0  0  0  0  0  0  0  0
    3.4054   -1.2243   -2.4384 H   0  0  0  0  0  0  0  0  0  0  0  0
   -0.7365    0.6724   -1.0737 H   0  0  0  0  0  0  0  0  0  0  0  0
  1  6  1  0
  2  7  1  0
  3 11  1  0
  4 18  1  0
  5 19  1  0
  6 17  1  0
  7 17  1  0
  8 11  1  0
  8 12  1  0
  9 12  2  0
  9 15  1  0
 10 13  1  0
 10 14  2  0
 11 17  1  0
 12 14  1  0
 13 15  2  0
 13 16  1  0
 14 18  1  0
 15 19  1  0
  1 20  1  0
  1 21  1  0
  1 22  1  0
  2 23  1  0
  2 24  1  0
  2 25  1  0
  3 26  1  0
  3 27  1  0
  3 28  1  0
  4 29  1  0
  4 30  1  0
  4 31  1  0
  5 32  1  0
  5 33  1  0
  5 34  1  0
  6 35  1  0
  6 36  1  0
  7 37  1  0
  7 38  1  0
  8 39  1  0
  8 40  1  0
  9 41  1  0
 10 42  1  0
 11 43  1  0
M  END
