
     RDKit          3D

 43 43  0  0  0  0  0  0  0  0999 V2000
    4.4912   -0.5809   -0.0932 C   0  0  0  0  0  0  0  0  0  0  0  0
   -1.6960    0.9395   -1.7494 C   0  0  0  0  0  0  0  0  0  0  0  0
   -2.0323   -1.4031   -1.1650 C   0  0  0  0  0  0  0  0  0  0  0  0
   -1.5757    1.7229    1.2878 C   0  0  0  0  0  0  0  0  0  0  0  0
   -3.6366    0.4993    0.6084 C   0  0  0  0  0  0  0  0  0  0  0  0
    2.7300    3.0360   -1.2460 C   0  0  0  0  0  0  0  0  0  0  0  0
    0.3550   -3.1276    1.5979 C   0  0  0  0  0  0  0  0  0  0  0  0
    2.1730   -1.5298    0.1111 C   0  0  0  0  0  0  0  0  0  0  0  0
    1.0150    0.8385   -0.7157 C   0  0  0  0  0  0  0  0  0  0  0  0
    2.9985   -0.4449   -0.2013 C   0  0  0  0  0  0  0  0  0  0  0  0
    0.1541   -0.2530   -0.4306 C   0  0  0  0  0  0  0  0  0  0  0  0
    2.4110    0.7572   -0.6043 C   0  0  0  0  0  0  0  0  0  0  0  0
    0.7735   -1.4327    0.0325 C   0  0  0  0  0  0  0  0  0  0  0  0
   -1.3936   -0.0905   -0.6101 C   0  0  0  0  0  0  0  0  0  0  0  0
   -2.1027    0.3692    0.7622 C   0  0  0  0  0  0  0  0  0  0  0  0
   -1.8785   -0.5865    1.8666 N   0  0  0  0  0  0  0  0  0  0  0  0
    3.2823    1.7815   -0.8712 O   0  0  0  0  0  0  0  0  0  0  0  0
    0.0050   -2.5227    0.3536 O   0  0  0  0  0  0  0  0  0  0  0  0
    4.8822    0.1173    0.6540 H   0  0  0  0  0  0  0  0  0  0  0  0
    4.9622   -0.3801   -1.0610 H   0  0  0  0  0  0  0  0  0  0  0  0
    4.7827   -1.5914    0.2120 H   0  0  0  0  0  0  0  0  0  0  0  0
   -1.4437    1.9690   -1.4838 H   0  0  0  0  0  0  0  0  0  0  0  0
   -2.7570    0.9469   -2.0230 H   0  0  0  0  0  0  0  0  0  0  0  0
   -1.1389    0.6889   -2.6612 H   0  0  0  0  0  0  0  0  0  0  0  0
   -2.1511   -2.1858   -0.4130 H   0  0  0  0  0  0  0  0  0  0  0  0
   -3.0383   -1.2264   -1.5638 H   0  0  0  0  0  0  0  0  0  0  0  0
   -1.4355   -1.8141   -1.9886 H   0  0  0  0  0  0  0  0  0  0  0  0
   -0.5046    1.6911    1.5120 H   0  0  0  0  0  0  0  0  0  0  0  0
   -1.7525    2.5356    0.5773 H   0  0  0  0  0  0  0  0  0  0  0  0
   -2.0820    2.0112    2.2183 H   0  0  0  0  0  0  0  0  0  0  0  0
   -4.1042   -0.4486    0.3226 H   0  0  0  0  0  0  0  0  0  0  0  0
   -4.1066    0.8125    1.5495 H   0  0  0  0  0  0  0  0  0  0  0  0
   -3.9069    1.2537   -0.1369 H   0  0  0  0  0  0  0  0  0  0  0  0
    2.0962    3.4429   -0.4511 H   0  0  0  0  0  0  0  0  0  0  0  0
    3.5592    3.7336   -1.3983 H   0  0  0  0  0  0  0  0  0  0  0  0
    2.1831    2.9597   -2.1914 H   0  0  0  0  0  0  0  0  0  0  0  0
   -0.5207   -3.6759    1.9585 H   0  0  0  0  0  0  0  0  0  0  0  0
    0.6245   -2.3871    2.3596 H   0  0  0  0  0  0  0  0  0  0  0  0
    1.1642   -3.8507    1.4570 H   0  0  0  0  0  0  0  0  0  0  0  0
    2.6325   -2.4684    0.4078 H   0  0  0  0  0  0  0  0  0  0  0  0
    0.5796    1.7805   -1.0229 H   0  0  0  0  0  0  0  0  0  0  0  0
   -2.1284   -1.5273    1.5694 H   0  0  0  0  0  0  0  0  0  0  0  0
   -2.4696   -0.3594    2.6636 H   0  0  0  0  0  0  0  0  0  0  0  0
  1 10  1  0
  2 14  1  0
  3 14  1  0
  4 15  1  0
  5 15  1  0
  6 17  1  0
  7 18  1  0
  8 10  2  0
  8 13  1  0
  9 11  1  0
  9 12  2  0
 10 12  1  0
 11 13  2  0
 11 14  1  0
 12 17  1  0
 13 18  1  0
 14 15  1  0
 15 16  1  0
  1 19  1  0
  1 20  1  0
  1 21  1  0
  2 22  1  0
  2 23  1  0
  2 24  1  0
  3 25  1  0
  3 26  1  0
  3 27  1  0
  4 28  1  0
  4 29  1  0
  4 30  1  0
  5 31  1  0
  5 32  1  0
  5 33  1  0
  6 34  1  0
  6 35  1  0
  6 36  1  0
  7 37  1  0
  7 38  1  0
  7 39  1  0
  8 40  1  0
  9 41  1  0
 16 42  1  0
 16 43  1  0
M  END
