
     RDKit          3D

 46 46  0  0  0  0  0  0  0  0999 V2000
    4.8539    1.5224    1.4290 C   0  0  0  0  0  0  0  0  0  0  0  0
   -3.4899    2.1217    0.5301 C   0  0  0  0  0  0  0  0  0  0  0  0
   -1.7820   -2.5588    3.0454 C   0  0  0  0  0  0  0  0  0  0  0  0
   -0.0180    0.5931   -3.4189 C   0  0  0  0  0  0  0  0  0  0  0  0
    4.3992    1.7889    0.0021 C   0  0  0  0  0  0  0  0  0  0  0  0
    4.7261    0.6468   -0.9661 C   0  0  0  0  0  0  0  0  0  0  0  0
    4.0392   -0.6760   -0.6350 C   0  0  0  0  0  0  0  0  0  0  0  0
   -3.7419   -0.3691    0.0285 C   0  0  0  0  0  0  0  0  0  0  0  0
   -1.5399   -0.2873   -1.2028 C   0  0  0  0  0  0  0  0  0  0  0  0
   -0.2559   -1.7071    0.8253 C   0  0  0  0  0  0  0  0  0  0  0  0
   -4.0549    0.7830    1.0091 C   0  0  0  0  0  0  0  0  0  0  0  0
   -2.2667   -0.7088   -0.0698 C   0  0  0  0  0  0  0  0  0  0  0  0
    0.4629   -1.2600   -0.2961 C   0  0  0  0  0  0  0  0  0  0  0  0
   -1.6171   -1.4316    0.9469 C   0  0  0  0  0  0  0  0  0  0  0  0
   -0.1747   -0.5607   -1.3310 C   0  0  0  0  0  0  0  0  0  0  0  0
    1.9044   -1.5867   -0.3274 C   0  0  0  0  0  0  0  0  0  0  0  0
   -5.5082    0.9349    1.1744 N   0  0  0  0  0  0  0  0  0  0  0  0
    2.3501   -2.6819   -0.0227 O   0  0  0  0  0  0  0  0  0  0  0  0
   -2.4016   -1.8188    2.0002 O   0  0  0  0  0  0  0  0  0  0  0  0
    0.5804   -0.2249   -2.4223 O   0  0  0  0  0  0  0  0  0  0  0  0
    2.6221   -0.4771   -0.6248 O   0  0  0  0  0  0  0  0  0  0  0  0
    4.6936    2.4136    2.0451 H   0  0  0  0  0  0  0  0  0  0  0  0
    4.2909    0.7007    1.8815 H   0  0  0  0  0  0  0  0  0  0  0  0
    5.9193    1.2744    1.4633 H   0  0  0  0  0  0  0  0  0  0  0  0
   -3.8548    2.3771   -0.4713 H   0  0  0  0  0  0  0  0  0  0  0  0
   -3.7746    2.9330    1.2099 H   0  0  0  0  0  0  0  0  0  0  0  0
   -2.3961    2.0998    0.4969 H   0  0  0  0  0  0  0  0  0  0  0  0
   -0.9990   -1.9706    3.5347 H   0  0  0  0  0  0  0  0  0  0  0  0
   -1.3910   -3.5125    2.6756 H   0  0  0  0  0  0  0  0  0  0  0  0
   -2.5474   -2.7817    3.7953 H   0  0  0  0  0  0  0  0  0  0  0  0
   -0.8303    0.0623   -3.9257 H   0  0  0  0  0  0  0  0  0  0  0  0
   -0.3657    1.5427   -2.9983 H   0  0  0  0  0  0  0  0  0  0  0  0
    0.7474    0.8214   -4.1670 H   0  0  0  0  0  0  0  0  0  0  0  0
    4.8939    2.6994   -0.3586 H   0  0  0  0  0  0  0  0  0  0  0  0
    3.3224    1.9949   -0.0033 H   0  0  0  0  0  0  0  0  0  0  0  0
    4.4103    0.9631   -1.9688 H   0  0  0  0  0  0  0  0  0  0  0  0
    5.8108    0.4922   -1.0034 H   0  0  0  0  0  0  0  0  0  0  0  0
    4.2939   -1.4148   -1.4043 H   0  0  0  0  0  0  0  0  0  0  0  0
    4.3718   -1.0519    0.3387 H   0  0  0  0  0  0  0  0  0  0  0  0
   -4.2827   -1.2771    0.3287 H   0  0  0  0  0  0  0  0  0  0  0  0
   -4.1308   -0.1239   -0.9693 H   0  0  0  0  0  0  0  0  0  0  0  0
   -2.0742    0.2519   -1.9794 H   0  0  0  0  0  0  0  0  0  0  0  0
    0.2817   -2.2644    1.5873 H   0  0  0  0  0  0  0  0  0  0  0  0
   -3.6312    0.5656    1.9962 H   0  0  0  0  0  0  0  0  0  0  0  0
   -5.9460    1.1052    0.2688 H   0  0  0  0  0  0  0  0  0  0  0  0
   -5.8997    0.0574    1.5206 H   0  0  0  0  0  0  0  0  0  0  0  0
  1  5  1  0
  2 11  1  0
  3 19  1  0
  4 20  1  0
  5  6  1  0
  6  7  1  0
  7 21  1  0
  8 11  1  0
  8 12  1  0
  9 12  2  0
  9 15  1  0
 10 13  1  0
 10 14  2  0
 11 17  1  0
 12 14  1  0
 13 15  2  0
 13 16  1  0
 14 19  1  0
 15 20  1  0
 16 18  2  0
 16 21  1  0
  1 22  1  0
  1 23  1  0
  1 24  1  0
  2 25  1  0
  2 26  1  0
  2 27  1  0
  3 28  1  0
  3 29  1  0
  3 30  1  0
  4 31  1  0
  4 32  1  0
  4 33  1  0
  5 34  1  0
  5 35  1  0
  6 36  1  0
  6 37  1  0
  7 38  1  0
  7 39  1  0
  8 40  1  0
  8 41  1  0
  9 42  1  0
 10 43  1  0
 11 44  1  0
 17 45  1  0
 17 46  1  0
M  END
