
     RDKit          3D

 47 47  0  0  0  0  0  0  0  0999 V2000
    4.6675    1.9429   -0.9722 C   0  0  0  0  0  0  0  0  0  0  0  0
   -2.5505    3.0515   -0.2929 C   0  0  0  0  0  0  0  0  0  0  0  0
   -4.5897   -0.4009   -1.5866 C   0  0  0  0  0  0  0  0  0  0  0  0
   -0.0417    0.0666    4.0318 C   0  0  0  0  0  0  0  0  0  0  0  0
    1.0472   -2.8954   -2.6404 C   0  0  0  0  0  0  0  0  0  0  0  0
    4.1151    0.9308    0.0211 C   0  0  0  0  0  0  0  0  0  0  0  0
   -2.3463    1.7729    0.5132 C   0  0  0  0  0  0  0  0  0  0  0  0
    4.2648   -0.4943   -0.5075 C   0  0  0  0  0  0  0  0  0  0  0  0
   -2.3538   -0.7731    0.5874 C   0  0  0  0  0  0  0  0  0  0  0  0
   -0.2230   -1.5577   -0.5007 C   0  0  0  0  0  0  0  0  0  0  0  0
    1.2871   -0.9568    1.7577 C   0  0  0  0  0  0  0  0  0  0  0  0
   -0.8551   -1.0187    0.6376 C   0  0  0  0  0  0  0  0  0  0  0  0
   -2.7524    0.4803   -0.2374 C   0  0  0  0  0  0  0  0  0  0  0  0
   -0.0903   -0.7233    1.7781 C   0  0  0  0  0  0  0  0  0  0  0  0
    1.1538   -1.8003   -0.5205 C   0  0  0  0  0  0  0  0  0  0  0  0
    1.9165   -1.4758    0.6145 C   0  0  0  0  0  0  0  0  0  0  0  0
   -4.2097    0.4819   -0.4894 N   0  0  0  0  0  0  0  0  0  0  0  0
   -0.7745   -0.2018    2.8435 O   0  0  0  0  0  0  0  0  0  0  0  0
    1.8240   -2.3322   -1.5921 O   0  0  0  0  0  0  0  0  0  0  0  0
    3.6934   -1.7298    0.7110 S   0  0  0  0  0  0  0  0  0  0  0  0
    4.5536    2.9587   -0.5810 H   0  0  0  0  0  0  0  0  0  0  0  0
    4.1357    1.8850   -1.9274 H   0  0  0  0  0  0  0  0  0  0  0  0
    5.7319    1.7685   -1.1595 H   0  0  0  0  0  0  0  0  0  0  0  0
   -2.1180    3.9024    0.2439 H   0  0  0  0  0  0  0  0  0  0  0  0
   -3.6095    3.2724   -0.4518 H   0  0  0  0  0  0  0  0  0  0  0  0
   -2.0582    2.9832   -1.2681 H   0  0  0  0  0  0  0  0  0  0  0  0
   -5.6714   -0.3356   -1.7416 H   0  0  0  0  0  0  0  0  0  0  0  0
   -4.3589   -1.4481   -1.3742 H   0  0  0  0  0  0  0  0  0  0  0  0
   -4.1017   -0.1087   -2.5222 H   0  0  0  0  0  0  0  0  0  0  0  0
    0.4072   -0.8471    4.4351 H   0  0  0  0  0  0  0  0  0  0  0  0
    0.7145    0.8399    3.8618 H   0  0  0  0  0  0  0  0  0  0  0  0
   -0.7449    0.4486    4.7782 H   0  0  0  0  0  0  0  0  0  0  0  0
    1.7339   -3.3788   -3.3420 H   0  0  0  0  0  0  0  0  0  0  0  0
    0.5075   -2.1166   -3.1885 H   0  0  0  0  0  0  0  0  0  0  0  0
    0.3626   -3.6626   -2.2633 H   0  0  0  0  0  0  0  0  0  0  0  0
    3.0612    1.1672    0.2063 H   0  0  0  0  0  0  0  0  0  0  0  0
    4.6498    1.0431    0.9720 H   0  0  0  0  0  0  0  0  0  0  0  0
   -1.2825    1.7272    0.7712 H   0  0  0  0  0  0  0  0  0  0  0  0
   -2.8958    1.8513    1.4597 H   0  0  0  0  0  0  0  0  0  0  0  0
    3.7369   -0.6156   -1.4578 H   0  0  0  0  0  0  0  0  0  0  0  0
    5.3226   -0.7040   -0.7007 H   0  0  0  0  0  0  0  0  0  0  0  0
   -2.8014   -1.6781    0.1572 H   0  0  0  0  0  0  0  0  0  0  0  0
   -2.7775   -0.7087    1.5974 H   0  0  0  0  0  0  0  0  0  0  0  0
   -0.8404   -1.7793   -1.3661 H   0  0  0  0  0  0  0  0  0  0  0  0
    1.9029   -0.7342    2.6234 H   0  0  0  0  0  0  0  0  0  0  0  0
   -2.2200    0.4804   -1.1979 H   0  0  0  0  0  0  0  0  0  0  0  0
   -4.5225    1.4229   -0.7204 H   0  0  0  0  0  0  0  0  0  0  0  0
  1  6  1  0
  2  7  1  0
  3 17  1  0
  4 18  1  0
  5 19  1  0
  6  8  1  0
  7 13  1  0
  8 20  1  0
  9 12  1  0
  9 13  1  0
 10 12  2  0
 10 15  1  0
 11 14  2  0
 11 16  1  0
 12 14  1  0
 13 17  1  0
 14 18  1  0
 15 16  2  0
 15 19  1  0
 16 20  1  0
  1 21  1  0
  1 22  1  0
  1 23  1  0
  2 24  1  0
  2 25  1  0
  2 26  1  0
  3 27  1  0
  3 28  1  0
  3 29  1  0
  4 30  1  0
  4 31  1  0
  4 32  1  0
  5 33  1  0
  5 34  1  0
  5 35  1  0
  6 36  1  0
  6 37  1  0
  7 38  1  0
  7 39  1  0
  8 40  1  0
  8 41  1  0
  9 42  1  0
  9 43  1  0
 10 44  1  0
 11 45  1  0
 13 46  1  0
 17 47  1  0
M  END
