
     RDKit          3D

 44 45  0  0  0  0  0  0  0  0999 V2000
   -1.6260   -1.0047   -3.4934 C   0  0  0  0  0  0  0  0  0  0  0  0
    4.9271   -1.8503    2.1449 C   0  0  0  0  0  0  0  0  0  0  0  0
    2.2719    2.8122    1.1822 C   0  0  0  0  0  0  0  0  0  0  0  0
   -4.0706    1.8270    2.6166 C   0  0  0  0  0  0  0  0  0  0  0  0
   -3.3044    0.6937    2.8836 C   0  0  0  0  0  0  0  0  0  0  0  0
   -4.3821    2.1628    1.3003 C   0  0  0  0  0  0  0  0  0  0  0  0
   -2.8531   -0.1089    1.8342 C   0  0  0  0  0  0  0  0  0  0  0  0
   -3.9314    1.3620    0.2499 C   0  0  0  0  0  0  0  0  0  0  0  0
    2.2195   -1.6815   -1.0892 C   0  0  0  0  0  0  0  0  0  0  0  0
    3.1059   -1.7716   -0.0130 C   0  0  0  0  0  0  0  0  0  0  0  0
    0.6095   -0.3800   -2.5402 C   0  0  0  0  0  0  0  0  0  0  0  0
    1.8455    0.6496   -0.5843 C   0  0  0  0  0  0  0  0  0  0  0  0
   -2.6664   -0.6410   -0.6344 C   0  0  0  0  0  0  0  0  0  0  0  0
   -0.8041   -0.9205   -2.2029 C   0  0  0  0  0  0  0  0  0  0  0  0
   -3.1714    0.2117    0.5066 C   0  0  0  0  0  0  0  0  0  0  0  0
    1.5844   -0.4722   -1.3859 C   0  0  0  0  0  0  0  0  0  0  0  0
    3.3653   -0.6546    0.7880 C   0  0  0  0  0  0  0  0  0  0  0  0
    2.7224    0.5665    0.5043 C   0  0  0  0  0  0  0  0  0  0  0  0
   -1.4639   -0.0454   -1.2177 N   0  0  0  0  0  0  0  0  0  0  0  0
    4.2141   -0.6542    1.8675 O   0  0  0  0  0  0  0  0  0  0  0  0
    3.0210    1.6155    1.3393 O   0  0  0  0  0  0  0  0  0  0  0  0
   -1.8004   -0.0111   -3.9213 H   0  0  0  0  0  0  0  0  0  0  0  0
   -1.1032   -1.6058   -4.2456 H   0  0  0  0  0  0  0  0  0  0  0  0
   -2.5979   -1.4788   -3.3251 H   0  0  0  0  0  0  0  0  0  0  0  0
    4.2442   -2.6629    2.4137 H   0  0  0  0  0  0  0  0  0  0  0  0
    5.5736   -1.6619    3.0074 H   0  0  0  0  0  0  0  0  0  0  0  0
    5.5693   -2.1334    1.3044 H   0  0  0  0  0  0  0  0  0  0  0  0
    1.1987    2.6292    1.3014 H   0  0  0  0  0  0  0  0  0  0  0  0
    2.4892    3.2880    0.2204 H   0  0  0  0  0  0  0  0  0  0  0  0
    2.5797    3.5051    1.9713 H   0  0  0  0  0  0  0  0  0  0  0  0
   -4.4195    2.4523    3.4341 H   0  0  0  0  0  0  0  0  0  0  0  0
   -3.0541    0.4367    3.9095 H   0  0  0  0  0  0  0  0  0  0  0  0
   -4.9709    3.0516    1.0902 H   0  0  0  0  0  0  0  0  0  0  0  0
   -2.2480   -0.9844    2.0582 H   0  0  0  0  0  0  0  0  0  0  0  0
   -4.1653    1.6403   -0.7754 H   0  0  0  0  0  0  0  0  0  0  0  0
    2.0313   -2.5647   -1.6958 H   0  0  0  0  0  0  0  0  0  0  0  0
    3.5755   -2.7308    0.1759 H   0  0  0  0  0  0  0  0  0  0  0  0
    0.5458    0.6592   -2.8905 H   0  0  0  0  0  0  0  0  0  0  0  0
    1.0316   -0.9452   -3.3822 H   0  0  0  0  0  0  0  0  0  0  0  0
    1.3451    1.5816   -0.8299 H   0  0  0  0  0  0  0  0  0  0  0  0
   -3.4652   -0.7297   -1.3793 H   0  0  0  0  0  0  0  0  0  0  0  0
   -2.4607   -1.6526   -0.2625 H   0  0  0  0  0  0  0  0  0  0  0  0
   -0.6969   -1.9305   -1.7863 H   0  0  0  0  0  0  0  0  0  0  0  0
   -0.8149    0.1320   -0.4491 H   0  0  0  0  0  0  0  0  0  0  0  0
  1 14  1  0
  2 20  1  0
  3 21  1  0
  4  5  2  0
  4  6  1  0
  5  7  1  0
  6  8  2  0
  7 15  2  0
  8 15  1  0
  9 10  2  0
  9 16  1  0
 10 17  1  0
 11 14  1  0
 11 16  1  0
 12 16  2  0
 12 18  1  0
 13 15  1  0
 13 19  1  0
 14 19  1  0
 17 18  2  0
 17 20  1  0
 18 21  1  0
  1 22  1  0
  1 23  1  0
  1 24  1  0
  2 25  1  0
  2 26  1  0
  2 27  1  0
  3 28  1  0
  3 29  1  0
  3 30  1  0
  4 31  1  0
  5 32  1  0
  6 33  1  0
  7 34  1  0
  8 35  1  0
  9 36  1  0
 10 37  1  0
 11 38  1  0
 11 39  1  0
 12 40  1  0
 13 41  1  0
 13 42  1  0
 14 43  1  0
 19 44  1  0
M  END
