
     RDKit          3D

 51 53  0  0  0  0  0  0  0  0999 V2000
    0.7570   -0.9152    0.3477 C   0  0  0  0  0  0  0  0  0  0  0  0
   -4.0292   -3.2782   -1.6739 C   0  0  0  0  0  0  0  0  0  0  0  0
   -3.6593    3.1678    1.5367 C   0  0  0  0  0  0  0  0  0  0  0  0
   -5.5181   -0.9549    2.0399 C   0  0  0  0  0  0  0  0  0  0  0  0
    4.0364    1.6527   -0.3405 C   0  0  0  0  0  0  0  0  0  0  0  0
    5.2691    1.6937    0.3189 C   0  0  0  0  0  0  0  0  0  0  0  0
    4.0854   -0.7806   -0.3605 C   0  0  0  0  0  0  0  0  0  0  0  0
   -2.4874   -0.9732   -1.1014 C   0  0  0  0  0  0  0  0  0  0  0  0
   -2.4000    1.2257   -0.0840 C   0  0  0  0  0  0  0  0  0  0  0  0
    2.0932    0.3955   -1.3926 C   0  0  0  0  0  0  0  0  0  0  0  0
   -0.4205    0.4444   -1.4658 C   0  0  0  0  0  0  0  0  0  0  0  0
    7.1767   -1.0953    1.2867 C   0  0  0  0  0  0  0  0  0  0  0  0
    3.4303    0.4203   -0.6797 C   0  0  0  0  0  0  0  0  0  0  0  0
   -1.7968    0.2284   -0.8667 C   0  0  0  0  0  0  0  0  0  0  0  0
    5.8743    0.4944    0.6215 C   0  0  0  0  0  0  0  0  0  0  0  0
    5.2995   -0.7086    0.2899 C   0  0  0  0  0  0  0  0  0  0  0  0
   -3.7594   -1.1845   -0.5631 C   0  0  0  0  0  0  0  0  0  0  0  0
   -3.6670    1.0336    0.4725 C   0  0  0  0  0  0  0  0  0  0  0  0
   -4.3318   -0.1813    0.2368 C   0  0  0  0  0  0  0  0  0  0  0  0
    0.8076    0.3704   -0.4977 C   0  0  0  0  0  0  0  0  0  0  0  0
    0.7939    1.5259    0.4236 N   0  0  0  0  0  0  0  0  0  0  0  0
   -4.5054   -2.3219   -0.7382 O   0  0  0  0  0  0  0  0  0  0  0  0
   -4.3303    1.9493    1.2489 O   0  0  0  0  0  0  0  0  0  0  0  0
   -5.6009   -0.3673    0.7430 O   0  0  0  0  0  0  0  0  0  0  0  0
    7.0672    0.3431    1.2559 O   0  0  0  0  0  0  0  0  0  0  0  0
    6.0584   -1.7699    0.6734 O   0  0  0  0  0  0  0  0  0  0  0  0
    1.6085   -0.9894    1.0325 H   0  0  0  0  0  0  0  0  0  0  0  0
   -0.1429   -0.9601    0.9713 H   0  0  0  0  0  0  0  0  0  0  0  0
    0.7642   -1.8046   -0.2924 H   0  0  0  0  0  0  0  0  0  0  0  0
   -3.0982   -3.7373   -1.3260 H   0  0  0  0  0  0  0  0  0  0  0  0
   -3.9057   -2.8361   -2.6682 H   0  0  0  0  0  0  0  0  0  0  0  0
   -4.7798   -4.0705   -1.7538 H   0  0  0  0  0  0  0  0  0  0  0  0
   -4.3156    3.7678    2.1745 H   0  0  0  0  0  0  0  0  0  0  0  0
   -3.4713    3.7406    0.6226 H   0  0  0  0  0  0  0  0  0  0  0  0
   -2.7321    2.9882    2.0909 H   0  0  0  0  0  0  0  0  0  0  0  0
   -6.5386   -1.0960    2.4085 H   0  0  0  0  0  0  0  0  0  0  0  0
   -4.9935   -0.3001    2.7441 H   0  0  0  0  0  0  0  0  0  0  0  0
   -5.0343   -1.9372    2.0042 H   0  0  0  0  0  0  0  0  0  0  0  0
    3.5474    2.5908   -0.5955 H   0  0  0  0  0  0  0  0  0  0  0  0
    5.7366    2.6360    0.5813 H   0  0  0  0  0  0  0  0  0  0  0  0
    3.6591   -1.7464   -0.6104 H   0  0  0  0  0  0  0  0  0  0  0  0
   -2.0075   -1.7346   -1.7073 H   0  0  0  0  0  0  0  0  0  0  0  0
   -1.8514    2.1473    0.0809 H   0  0  0  0  0  0  0  0  0  0  0  0
    2.0829   -0.4731   -2.0662 H   0  0  0  0  0  0  0  0  0  0  0  0
    2.0535    1.2685   -2.0600 H   0  0  0  0  0  0  0  0  0  0  0  0
   -0.2799   -0.2934   -2.2684 H   0  0  0  0  0  0  0  0  0  0  0  0
   -0.4273    1.4162   -1.9805 H   0  0  0  0  0  0  0  0  0  0  0  0
    7.2513   -1.4188    2.3313 H   0  0  0  0  0  0  0  0  0  0  0  0
    8.0933   -1.3882    0.7618 H   0  0  0  0  0  0  0  0  0  0  0  0
    1.5643    1.4326    1.0883 H   0  0  0  0  0  0  0  0  0  0  0  0
    0.9741    2.3836   -0.0951 H   0  0  0  0  0  0  0  0  0  0  0  0
  1 20  1  0
  2 22  1  0
  3 23  1  0
  4 24  1  0
  5  6  2  0
  5 13  1  0
  6 15  1  0
  7 13  2  0
  7 16  1  0
  8 14  2  0
  8 17  1  0
  9 14  1  0
  9 18  2  0
 10 13  1  0
 10 20  1  0
 11 14  1  0
 11 20  1  0
 12 25  1  0
 12 26  1  0
 15 16  2  0
 15 25  1  0
 16 26  1  0
 17 19  2  0
 17 22  1  0
 18 19  1  0
 18 23  1  0
 19 24  1  0
 20 21  1  0
  1 27  1  0
  1 28  1  0
  1 29  1  0
  2 30  1  0
  2 31  1  0
  2 32  1  0
  3 33  1  0
  3 34  1  0
  3 35  1  0
  4 36  1  0
  4 37  1  0
  4 38  1  0
  5 39  1  0
  6 40  1  0
  7 41  1  0
  8 42  1  0
  9 43  1  0
 10 44  1  0
 10 45  1  0
 11 46  1  0
 11 47  1  0
 12 48  1  0
 12 49  1  0
 21 50  1  0
 21 51  1  0
M  END
