
     RDKit          3D

 17 17  0  0  0  0  0  0  0  0999 V2000
    0.1434    1.2159    0.2813 C   0  0  0  0  0  0  0  0  0  0  0  0
    0.4358   -1.1759    0.0744 C   0  0  0  0  0  0  0  0  0  0  0  0
    1.4860    1.4088   -0.0528 C   0  0  0  0  0  0  0  0  0  0  0  0
    1.7783   -0.9827   -0.2597 C   0  0  0  0  0  0  0  0  0  0  0  0
   -1.8477   -0.2856    0.6908 C   0  0  0  0  0  0  0  0  0  0  0  0
   -0.3924   -0.0788    0.3559 C   0  0  0  0  0  0  0  0  0  0  0  0
    2.2976    0.3086   -0.3207 C   0  0  0  0  0  0  0  0  0  0  0  0
    3.9509    0.5464   -0.7334 Cl  0  0  0  0  0  0  0  0  0  0  0  0
   -2.6717   -0.2824   -0.5110 N   0  0  0  0  0  0  0  0  0  0  0  0
   -0.4839    2.0815    0.4848 H   0  0  0  0  0  0  0  0  0  0  0  0
    0.0380   -2.1879    0.1155 H   0  0  0  0  0  0  0  0  0  0  0  0
    1.8900    2.4162   -0.1034 H   0  0  0  0  0  0  0  0  0  0  0  0
    2.4104   -1.8408   -0.4716 H   0  0  0  0  0  0  0  0  0  0  0  0
   -2.1913    0.4995    1.3741 H   0  0  0  0  0  0  0  0  0  0  0  0
   -1.9794   -1.2341    1.2241 H   0  0  0  0  0  0  0  0  0  0  0  0
   -2.5301    0.5978   -1.0047 H   0  0  0  0  0  0  0  0  0  0  0  0
   -2.3339   -1.0066   -1.1435 H   0  0  0  0  0  0  0  0  0  0  0  0
  1  3  2  0
  1  6  1  0
  2  4  1  0
  2  6  2  0
  3  7  1  0
  4  7  2  0
  5  6  1  0
  5  9  1  0
  7  8  1  0
  1 10  1  0
  2 11  1  0
  3 12  1  0
  4 13  1  0
  5 14  1  0
  5 15  1  0
  9 16  1  0
  9 17  1  0
M  END
