
     RDKit          3D

 20 20  0  0  0  0  0  0  0  0999 V2000
   -1.3339   -0.9364   -0.5655 C   0  0  0  0  0  0  0  0  0  0  0  0
   -0.4671    1.2241    0.0941 C   0  0  0  0  0  0  0  0  0  0  0  0
   -2.5962   -0.5716   -0.0945 C   0  0  0  0  0  0  0  0  0  0  0  0
   -1.7294    1.5869    0.5655 C   0  0  0  0  0  0  0  0  0  0  0  0
    1.1107   -0.4353   -0.9857 C   0  0  0  0  0  0  0  0  0  0  0  0
    2.0745   -0.8883    0.1209 C   0  0  0  0  0  0  0  0  0  0  0  0
   -0.2574   -0.0395   -0.4789 C   0  0  0  0  0  0  0  0  0  0  0  0
   -2.7821    0.6863    0.4657 C   0  0  0  0  0  0  0  0  0  0  0  0
   -3.9942    1.0341    0.9180 F   0  0  0  0  0  0  0  0  0  0  0  0
    2.6433    0.2300    0.8747 N   0  0  0  0  0  0  0  0  0  0  0  0
   -1.1959   -1.9238   -0.9999 H   0  0  0  0  0  0  0  0  0  0  0  0
    0.3587    1.9268    0.1851 H   0  0  0  0  0  0  0  0  0  0  0  0
   -3.4329   -1.2592   -0.1592 H   0  0  0  0  0  0  0  0  0  0  0  0
   -1.8943    2.5614    1.0126 H   0  0  0  0  0  0  0  0  0  0  0  0
    0.9959   -1.2583   -1.7033 H   0  0  0  0  0  0  0  0  0  0  0  0
    1.5414    0.3938   -1.5622 H   0  0  0  0  0  0  0  0  0  0  0  0
    2.9032   -1.4399   -0.3375 H   0  0  0  0  0  0  0  0  0  0  0  0
    1.5707   -1.5716    0.8136 H   0  0  0  0  0  0  0  0  0  0  0  0
    3.2034    0.8126    0.2543 H   0  0  0  0  0  0  0  0  0  0  0  0
    3.2815   -0.1320    1.5823 H   0  0  0  0  0  0  0  0  0  0  0  0
  1  3  2  0
  1  7  1  0
  2  4  1  0
  2  7  2  0
  3  8  1  0
  4  8  2  0
  5  6  1  0
  5  7  1  0
  6 10  1  0
  8  9  1  0
  1 11  1  0
  2 12  1  0
  3 13  1  0
  4 14  1  0
  5 15  1  0
  5 16  1  0
  6 17  1  0
  6 18  1  0
 10 19  1  0
 10 20  1  0
M  END
