
     RDKit          3D

 20 20  0  0  0  0  0  0  0  0999 V2000
   -1.2755   -0.8298   -0.7844 C   0  0  0  0  0  0  0  0  0  0  0  0
   -0.4684    1.1490    0.3395 C   0  0  0  0  0  0  0  0  0  0  0  0
   -2.5524   -0.6063   -0.2627 C   0  0  0  0  0  0  0  0  0  0  0  0
   -1.7435    1.3746    0.8636 C   0  0  0  0  0  0  0  0  0  0  0  0
    1.1589   -0.1976   -1.0542 C   0  0  0  0  0  0  0  0  0  0  0  0
    2.1304   -0.8437   -0.0555 C   0  0  0  0  0  0  0  0  0  0  0  0
   -0.2219    0.0477   -0.4912 C   0  0  0  0  0  0  0  0  0  0  0  0
   -2.7813    0.4961    0.5591 C   0  0  0  0  0  0  0  0  0  0  0  0
   -4.6796    0.8285    1.3376 I   0  0  0  0  0  0  0  0  0  0  0  0
    2.6727    0.1109    0.9128 N   0  0  0  0  0  0  0  0  0  0  0  0
   -1.1099   -1.6952   -1.4219 H   0  0  0  0  0  0  0  0  0  0  0  0
    0.3393    1.8331    0.5921 H   0  0  0  0  0  0  0  0  0  0  0  0
   -3.3534   -1.2995   -0.5046 H   0  0  0  0  0  0  0  0  0  0  0  0
   -1.9062    2.2339    1.5083 H   0  0  0  0  0  0  0  0  0  0  0  0
    1.0713   -0.8574   -1.9275 H   0  0  0  0  0  0  0  0  0  0  0  0
    1.5682    0.7441   -1.4427 H   0  0  0  0  0  0  0  0  0  0  0  0
    2.9726   -1.2724   -0.6106 H   0  0  0  0  0  0  0  0  0  0  0  0
    1.6413   -1.6643    0.4812 H   0  0  0  0  0  0  0  0  0  0  0  0
    3.2182    0.8206    0.4262 H   0  0  0  0  0  0  0  0  0  0  0  0
    3.3193   -0.3725    1.5349 H   0  0  0  0  0  0  0  0  0  0  0  0
  1  3  2  0
  1  7  1  0
  2  4  1  0
  2  7  2  0
  3  8  1  0
  4  8  2  0
  5  6  1  0
  5  7  1  0
  6 10  1  0
  8  9  1  0
  1 11  1  0
  2 12  1  0
  3 13  1  0
  4 14  1  0
  5 15  1  0
  5 16  1  0
  6 17  1  0
  6 18  1  0
 10 19  1  0
 10 20  1  0
M  END
