
     RDKit          3D

 20 20  0  0  0  0  0  0  0  0999 V2000
   -0.8267   -1.2465    0.4179 C   0  0  0  0  0  0  0  0  0  0  0  0
   -2.1934   -1.2139    0.7060 C   0  0  0  0  0  0  0  0  0  0  0  0
    1.2527   -0.2261   -0.5927 C   0  0  0  0  0  0  0  0  0  0  0  0
    2.0728    0.4173    0.5317 C   0  0  0  0  0  0  0  0  0  0  0  0
   -1.0166    0.8837   -0.7055 C   0  0  0  0  0  0  0  0  0  0  0  0
   -0.2273   -0.2007   -0.2950 C   0  0  0  0  0  0  0  0  0  0  0  0
   -2.9762   -0.1340    0.2887 C   0  0  0  0  0  0  0  0  0  0  0  0
   -2.3862    0.9183   -0.4182 C   0  0  0  0  0  0  0  0  0  0  0  0
   -4.6588   -0.1616    0.6799 Cl  0  0  0  0  0  0  0  0  0  0  0  0
   -3.2867    2.2887   -0.9637 Cl  0  0  0  0  0  0  0  0  0  0  0  0
    3.5060    0.3956    0.2456 N   0  0  0  0  0  0  0  0  0  0  0  0
   -0.2337   -2.0950    0.7551 H   0  0  0  0  0  0  0  0  0  0  0  0
   -2.6424   -2.0357    1.2590 H   0  0  0  0  0  0  0  0  0  0  0  0
    1.5719   -1.2648   -0.7487 H   0  0  0  0  0  0  0  0  0  0  0  0
    1.4401    0.2914   -1.5426 H   0  0  0  0  0  0  0  0  0  0  0  0
    1.8965   -0.1063    1.4783 H   0  0  0  0  0  0  0  0  0  0  0  0
    1.7609    1.4571    0.6828 H   0  0  0  0  0  0  0  0  0  0  0  0
   -0.5624    1.7078   -1.2526 H   0  0  0  0  0  0  0  0  0  0  0  0
    3.6928    0.8891   -0.6267 H   0  0  0  0  0  0  0  0  0  0  0  0
    3.8167   -0.5644    0.1009 H   0  0  0  0  0  0  0  0  0  0  0  0
  1  2  2  0
  1  6  1  0
  2  7  1  0
  3  4  1  0
  3  6  1  0
  4 11  1  0
  5  6  2  0
  5  8  1  0
  7  8  2  0
  7  9  1  0
  8 10  1  0
  1 12  1  0
  2 13  1  0
  3 14  1  0
  3 15  1  0
  4 16  1  0
  4 17  1  0
  5 18  1  0
 11 19  1  0
 11 20  1  0
M  END
