
     RDKit          3D

 21 22  0  0  0  0  0  0  0  0999 V2000
    1.6707   -1.0445    0.6243 C   0  0  0  0  0  0  0  0  0  0  0  0
    2.7259   -0.1651    0.3741 C   0  0  0  0  0  0  0  0  0  0  0  0
    1.2333    1.3640   -0.7983 C   0  0  0  0  0  0  0  0  0  0  0  0
   -0.8602   -1.4919    0.2853 C   0  0  0  0  0  0  0  0  0  0  0  0
   -1.2417    0.6126   -0.9571 C   0  0  0  0  0  0  0  0  0  0  0  0
    0.4079   -0.6992    0.1681 C   0  0  0  0  0  0  0  0  0  0  0  0
    0.1905    0.4922   -0.5351 C   0  0  0  0  0  0  0  0  0  0  0  0
    2.4996    1.0229   -0.3304 C   0  0  0  0  0  0  0  0  0  0  0  0
   -1.9386   -0.4316   -0.0487 C   0  0  0  0  0  0  0  0  0  0  0  0
    3.5285    1.8487   -0.5653 F   0  0  0  0  0  0  0  0  0  0  0  0
   -2.4706    0.1805    1.1834 N   0  0  0  0  0  0  0  0  0  0  0  0
    1.8394   -1.9727    1.1614 H   0  0  0  0  0  0  0  0  0  0  0  0
    3.7297   -0.3961    0.7172 H   0  0  0  0  0  0  0  0  0  0  0  0
    1.0859    2.2845   -1.3507 H   0  0  0  0  0  0  0  0  0  0  0  0
   -0.9883   -1.9261    1.2820 H   0  0  0  0  0  0  0  0  0  0  0  0
   -0.8638   -2.2928   -0.4623 H   0  0  0  0  0  0  0  0  0  0  0  0
   -1.3402    0.3309   -2.0113 H   0  0  0  0  0  0  0  0  0  0  0  0
   -1.6330    1.6248   -0.8150 H   0  0  0  0  0  0  0  0  0  0  0  0
   -2.7867   -0.8924   -0.5666 H   0  0  0  0  0  0  0  0  0  0  0  0
   -3.0903    0.9523    0.9401 H   0  0  0  0  0  0  0  0  0  0  0  0
   -1.6980    0.5991    1.7049 H   0  0  0  0  0  0  0  0  0  0  0  0
  1  2  2  0
  1  6  1  0
  2  8  1  0
  3  7  1  0
  3  8  2  0
  4  6  1  0
  4  9  1  0
  5  7  1  0
  5  9  1  0
  6  7  2  0
  8 10  1  0
  9 11  1  0
  1 12  1  0
  2 13  1  0
  3 14  1  0
  4 15  1  0
  4 16  1  0
  5 17  1  0
  5 18  1  0
  9 19  1  0
 11 20  1  0
 11 21  1  0
M  END
