
     RDKit          3D

 23 24  0  0  0  0  0  0  0  0999 V2000
    0.9979    1.5553   -0.6025 C   0  0  0  0  0  0  0  0  0  0  0  0
    2.2618    0.9588   -0.6259 C   0  0  0  0  0  0  0  0  0  0  0  0
   -1.5171    1.2139   -0.0801 C   0  0  0  0  0  0  0  0  0  0  0  0
   -1.2442   -1.1518    0.5748 C   0  0  0  0  0  0  0  0  0  0  0  0
    1.3132   -1.1644    0.1509 C   0  0  0  0  0  0  0  0  0  0  0  0
   -0.0869    0.7842   -0.2168 C   0  0  0  0  0  0  0  0  0  0  0  0
    0.0675   -0.5577    0.1550 C   0  0  0  0  0  0  0  0  0  0  0  0
   -2.2430   -0.1523   -0.0541 C   0  0  0  0  0  0  0  0  0  0  0  0
    2.4144   -0.3930   -0.2505 C   0  0  0  0  0  0  0  0  0  0  0  0
   -3.5303   -0.1209    0.6375 N   0  0  0  0  0  0  0  0  0  0  0  0
    3.7513   -1.0009   -0.2735 N   0  0  0  0  0  4  0  0  0  0  0  0
    3.8520   -2.1882    0.0682 O   0  0  0  0  0  1  0  0  0  0  0  0
    4.7020   -0.2914   -0.6330 O   0  0  0  0  0  0  0  0  0  0  0  0
    0.8749    2.5984   -0.8795 H   0  0  0  0  0  0  0  0  0  0  0  0
    3.1194    1.5555   -0.9315 H   0  0  0  0  0  0  0  0  0  0  0  0
   -1.6467    1.7670    0.8570 H   0  0  0  0  0  0  0  0  0  0  0  0
   -1.8526    1.8264   -0.9223 H   0  0  0  0  0  0  0  0  0  0  0  0
   -1.3906   -2.1622    0.1810 H   0  0  0  0  0  0  0  0  0  0  0  0
   -1.3071   -1.1659    1.6687 H   0  0  0  0  0  0  0  0  0  0  0  0
    1.4186   -2.2029    0.4524 H   0  0  0  0  0  0  0  0  0  0  0  0
   -2.4260   -0.4633   -1.0926 H   0  0  0  0  0  0  0  0  0  0  0  0
   -4.1310    0.5843    0.2113 H   0  0  0  0  0  0  0  0  0  0  0  0
   -3.3974    0.1710    1.6057 H   0  0  0  0  0  0  0  0  0  0  0  0
  1  2  2  0
  1  6  1  0
  2  9  1  0
  3  6  1  0
  3  8  1  0
  4  7  1  0
  4  8  1  0
  5  7  1  0
  5  9  2  0
  6  7  2  0
  8 10  1  0
  9 11  1  0
 11 12  1  0
 11 13  2  0
  1 14  1  0
  2 15  1  0
  3 16  1  0
  3 17  1  0
  4 18  1  0
  4 19  1  0
  5 20  1  0
  8 21  1  0
 10 22  1  0
 10 23  1  0
M  CHG  2  11   1  12  -1
M  END
