
     RDKit          3D

 22 22  0  0  0  0  0  0  0  0999 V2000
    3.5582    0.7882   -0.0865 C   0  0  0  0  0  0  0  0  0  0  0  0
   -3.3680    0.3947    0.7999 C   0  0  0  0  0  0  0  0  0  0  0  0
   -2.1712    0.9684    1.2281 C   0  0  0  0  0  0  0  0  0  0  0  0
   -3.3575   -0.5781   -0.1983 C   0  0  0  0  0  0  0  0  0  0  0  0
   -0.9579    0.5655    0.6640 C   0  0  0  0  0  0  0  0  0  0  0  0
   -2.1475   -0.9825   -0.7650 C   0  0  0  0  0  0  0  0  0  0  0  0
    1.6499   -0.6700   -0.2338 C   0  0  0  0  0  0  0  0  0  0  0  0
   -0.9397   -0.4202   -0.3298 C   0  0  0  0  0  0  0  0  0  0  0  0
    0.3283   -0.8878   -0.9616 C   0  0  0  0  0  0  0  0  0  0  0  0
    2.2385    0.6012   -0.6739 N   0  0  0  0  0  0  0  0  0  0  0  0
    0.2911   -1.4391   -2.0630 O   0  0  0  0  0  0  0  0  0  0  0  0
    4.2477   -0.0089   -0.3834 H   0  0  0  0  0  0  0  0  0  0  0  0
    3.9771    1.7399   -0.4274 H   0  0  0  0  0  0  0  0  0  0  0  0
    3.5020    0.8250    1.0062 H   0  0  0  0  0  0  0  0  0  0  0  0
   -4.3108    0.7129    1.2382 H   0  0  0  0  0  0  0  0  0  0  0  0
   -2.1831    1.7380    1.9962 H   0  0  0  0  0  0  0  0  0  0  0  0
   -4.2906   -1.0193   -0.5397 H   0  0  0  0  0  0  0  0  0  0  0  0
   -0.0437    1.0502    0.9966 H   0  0  0  0  0  0  0  0  0  0  0  0
   -2.1495   -1.7385   -1.5480 H   0  0  0  0  0  0  0  0  0  0  0  0
    1.4953   -0.6941    0.8500 H   0  0  0  0  0  0  0  0  0  0  0  0
    2.3020   -1.5164   -0.4828 H   0  0  0  0  0  0  0  0  0  0  0  0
    2.3294    0.5710   -1.6931 H   0  0  0  0  0  0  0  0  0  0  0  0
  1 10  1  0
  2  3  2  0
  2  4  1  0
  3  5  1  0
  4  6  2  0
  5  8  2  0
  6  8  1  0
  7  9  1  0
  7 10  1  0
  8  9  1  0
  9 11  2  0
  1 12  1  0
  1 13  1  0
  1 14  1  0
  2 15  1  0
  3 16  1  0
  4 17  1  0
  5 18  1  0
  6 19  1  0
  7 20  1  0
  7 21  1  0
 10 22  1  0
M  END
