
     RDKit          3D

 23 23  0  0  0  0  0  0  0  0999 V2000
    3.1148   -0.4825    0.3658 C   0  0  0  0  0  0  0  0  0  0  0  0
   -2.4103    1.5601   -0.2507 C   0  0  0  0  0  0  0  0  0  0  0  0
   -3.4660    0.6562   -0.2378 C   0  0  0  0  0  0  0  0  0  0  0  0
   -1.0907    1.1030   -0.1770 C   0  0  0  0  0  0  0  0  0  0  0  0
   -3.2019   -0.7078   -0.1535 C   0  0  0  0  0  0  0  0  0  0  0  0
    0.6350   -0.7784    0.0002 C   0  0  0  0  0  0  0  0  0  0  0  0
    1.8055    0.2364    0.0271 C   0  0  0  0  0  0  0  0  0  0  0  0
   -0.7941   -0.2677   -0.0892 C   0  0  0  0  0  0  0  0  0  0  0  0
   -1.8806   -1.1669   -0.0805 C   0  0  0  0  0  0  0  0  0  0  0  0
   -1.6385   -3.0525    0.0312 Br  0  0  0  0  0  0  0  0  0  0  0  0
    1.9670    0.9279   -1.2581 N   0  0  0  0  0  0  0  0  0  0  0  0
    3.9514    0.2236    0.4130 H   0  0  0  0  0  0  0  0  0  0  0  0
    3.0449   -0.9741    1.3422 H   0  0  0  0  0  0  0  0  0  0  0  0
    3.3583   -1.2475   -0.3802 H   0  0  0  0  0  0  0  0  0  0  0  0
   -2.6076    2.6269   -0.3226 H   0  0  0  0  0  0  0  0  0  0  0  0
   -4.4909    1.0120   -0.2965 H   0  0  0  0  0  0  0  0  0  0  0  0
   -0.2986    1.8477   -0.2014 H   0  0  0  0  0  0  0  0  0  0  0  0
   -4.0327   -1.4088   -0.1462 H   0  0  0  0  0  0  0  0  0  0  0  0
    0.8017   -1.4694   -0.8375 H   0  0  0  0  0  0  0  0  0  0  0  0
    0.7010   -1.3659    0.9262 H   0  0  0  0  0  0  0  0  0  0  0  0
    1.6230    0.9868    0.8051 H   0  0  0  0  0  0  0  0  0  0  0  0
    2.8133    1.4958   -1.2427 H   0  0  0  0  0  0  0  0  0  0  0  0
    2.0960    0.2453   -2.0048 H   0  0  0  0  0  0  0  0  0  0  0  0
  1  7  1  0
  2  3  2  0
  2  4  1  0
  3  5  1  0
  4  8  2  0
  5  9  2  0
  6  7  1  0
  6  8  1  0
  7 11  1  0
  8  9  1  0
  9 10  1  0
  1 12  1  0
  1 13  1  0
  1 14  1  0
  2 15  1  0
  3 16  1  0
  4 17  1  0
  5 18  1  0
  6 19  1  0
  6 20  1  0
  7 21  1  0
 11 22  1  0
 11 23  1  0
M  END
