
     RDKit          3D

 24 24  0  0  0  0  0  0  0  0999 V2000
   -3.3105    0.5911   -0.1416 C   0  0  0  0  0  0  0  0  0  0  0  0
    1.1095   -1.1039    0.3619 C   0  0  0  0  0  0  0  0  0  0  0  0
    2.4733   -1.1792    0.0675 C   0  0  0  0  0  0  0  0  0  0  0  0
   -1.0034    0.2170    0.8127 C   0  0  0  0  0  0  0  0  0  0  0  0
    1.2298    1.3084    0.3377 C   0  0  0  0  0  0  0  0  0  0  0  0
   -1.9033    0.0670   -0.4335 C   0  0  0  0  0  0  0  0  0  0  0  0
    0.4751    0.1374    0.5034 C   0  0  0  0  0  0  0  0  0  0  0  0
    2.5946    1.2349    0.0446 C   0  0  0  0  0  0  0  0  0  0  0  0
    3.2142   -0.0089   -0.0895 C   0  0  0  0  0  0  0  0  0  0  0  0
    3.5620    2.8530   -0.1646 Br  0  0  0  0  0  0  0  0  0  0  0  0
   -1.9991   -1.3341   -0.8665 N   0  0  0  0  0  0  0  0  0  0  0  0
    4.5487   -0.0846   -0.3778 O   0  0  0  0  0  0  0  0  0  0  0  0
   -3.7802    0.0445    0.6839 H   0  0  0  0  0  0  0  0  0  0  0  0
   -3.9564    0.4977   -1.0218 H   0  0  0  0  0  0  0  0  0  0  0  0
   -3.2786    1.6515    0.1315 H   0  0  0  0  0  0  0  0  0  0  0  0
    0.5358   -2.0227    0.4688 H   0  0  0  0  0  0  0  0  0  0  0  0
    2.9335   -2.1565   -0.0394 H   0  0  0  0  0  0  0  0  0  0  0  0
   -1.2016    1.1839    1.2946 H   0  0  0  0  0  0  0  0  0  0  0  0
   -1.2576   -0.5374    1.5696 H   0  0  0  0  0  0  0  0  0  0  0  0
    0.7514    2.2798    0.4370 H   0  0  0  0  0  0  0  0  0  0  0  0
   -1.4829    0.6518   -1.2606 H   0  0  0  0  0  0  0  0  0  0  0  0
   -2.5744   -1.3897   -1.7066 H   0  0  0  0  0  0  0  0  0  0  0  0
   -2.4833   -1.8829   -0.1571 H   0  0  0  0  0  0  0  0  0  0  0  0
    4.8035   -1.0180   -0.4542 H   0  0  0  0  0  0  0  0  0  0  0  0
  1  6  1  0
  2  3  2  0
  2  7  1  0
  3  9  1  0
  4  6  1  0
  4  7  1  0
  5  7  2  0
  5  8  1  0
  6 11  1  0
  8  9  2  0
  8 10  1  0
  9 12  1  0
  1 13  1  0
  1 14  1  0
  1 15  1  0
  2 16  1  0
  3 17  1  0
  4 18  1  0
  4 19  1  0
  5 20  1  0
  6 21  1  0
 11 22  1  0
 11 23  1  0
 12 24  1  0
M  END
