
     RDKit          3D

 23 23  0  0  0  0  0  0  0  0999 V2000
   -3.0086    0.6846    0.9290 C   0  0  0  0  0  0  0  0  0  0  0  0
   -2.1952   -0.0563    1.7841 C   0  0  0  0  0  0  0  0  0  0  0  0
   -2.7085    0.7535   -0.4299 C   0  0  0  0  0  0  0  0  0  0  0  0
    1.5817   -0.4458   -1.0475 C   0  0  0  0  0  0  0  0  0  0  0  0
   -1.0798   -0.7283    1.2811 C   0  0  0  0  0  0  0  0  0  0  0  0
   -1.5936    0.0824   -0.9345 C   0  0  0  0  0  0  0  0  0  0  0  0
    0.4435   -1.3822   -0.6274 C   0  0  0  0  0  0  0  0  0  0  0  0
    2.2003    0.2992    0.1358 C   0  0  0  0  0  0  0  0  0  0  0  0
   -0.7670   -0.6639   -0.0834 C   0  0  0  0  0  0  0  0  0  0  0  0
    3.3412    1.0941   -0.3108 N   0  0  0  0  0  0  0  0  0  0  0  0
   -3.8774    1.2064    1.3213 H   0  0  0  0  0  0  0  0  0  0  0  0
   -2.4300   -0.1123    2.8438 H   0  0  0  0  0  0  0  0  0  0  0  0
   -3.3438    1.3288   -1.0981 H   0  0  0  0  0  0  0  0  0  0  0  0
    2.3557   -1.0513   -1.5370 H   0  0  0  0  0  0  0  0  0  0  0  0
    1.2250    0.2732   -1.7959 H   0  0  0  0  0  0  0  0  0  0  0  0
   -0.4561   -1.3021    1.9628 H   0  0  0  0  0  0  0  0  0  0  0  0
   -1.3740    0.1431   -1.9981 H   0  0  0  0  0  0  0  0  0  0  0  0
    0.8150   -2.1068    0.1081 H   0  0  0  0  0  0  0  0  0  0  0  0
    0.1276   -1.9755   -1.4952 H   0  0  0  0  0  0  0  0  0  0  0  0
    2.5402   -0.4137    0.8945 H   0  0  0  0  0  0  0  0  0  0  0  0
    1.4671    0.9640    0.6039 H   0  0  0  0  0  0  0  0  0  0  0  0
    3.7115    1.6199    0.4803 H   0  0  0  0  0  0  0  0  0  0  0  0
    3.0252    1.7889   -0.9867 H   0  0  0  0  0  0  0  0  0  0  0  0
  1  2  2  0
  1  3  1  0
  2  5  1  0
  3  6  2  0
  4  7  1  0
  4  8  1  0
  5  9  2  0
  6  9  1  0
  7  9  1  0
  8 10  1  0
  1 11  1  0
  2 12  1  0
  3 13  1  0
  4 14  1  0
  4 15  1  0
  5 16  1  0
  6 17  1  0
  7 18  1  0
  7 19  1  0
  8 20  1  0
  8 21  1  0
 10 22  1  0
 10 23  1  0
M  END
