
     RDKit          3D

 24 24  0  0  0  0  0  0  0  0999 V2000
    4.2962    0.1274    0.0207 C   0  0  0  0  0  0  0  0  0  0  0  0
   -0.3429    0.5293    1.1934 C   0  0  0  0  0  0  0  0  0  0  0  0
    0.2774   -1.1171   -0.4509 C   0  0  0  0  0  0  0  0  0  0  0  0
    0.9976    0.9033    1.3160 C   0  0  0  0  0  0  0  0  0  0  0  0
    1.6204   -0.7411   -0.3260 C   0  0  0  0  0  0  0  0  0  0  0  0
   -2.1644   -0.8974    0.1718 C   0  0  0  0  0  0  0  0  0  0  0  0
   -2.9974    0.0499   -0.7044 C   0  0  0  0  0  0  0  0  0  0  0  0
   -0.7169   -0.4885    0.3100 C   0  0  0  0  0  0  0  0  0  0  0  0
    1.9865    0.2716    0.5600 C   0  0  0  0  0  0  0  0  0  0  0  0
   -3.3978    1.2719   -0.0054 N   0  0  0  0  0  0  0  0  0  0  0  0
    3.2559    0.7325    0.7772 O   0  0  0  0  0  0  0  0  0  0  0  0
    5.2383    0.6059    0.3053 H   0  0  0  0  0  0  0  0  0  0  0  0
    4.1511    0.2908   -1.0523 H   0  0  0  0  0  0  0  0  0  0  0  0
    4.3825   -0.9397    0.2507 H   0  0  0  0  0  0  0  0  0  0  0  0
   -1.0952    1.0457    1.7854 H   0  0  0  0  0  0  0  0  0  0  0  0
    0.0154   -1.9081   -1.1499 H   0  0  0  0  0  0  0  0  0  0  0  0
    1.2712    1.6984    2.0048 H   0  0  0  0  0  0  0  0  0  0  0  0
    2.3522   -1.2593   -0.9358 H   0  0  0  0  0  0  0  0  0  0  0  0
   -2.6122   -1.0010    1.1688 H   0  0  0  0  0  0  0  0  0  0  0  0
   -2.2060   -1.9019   -0.2697 H   0  0  0  0  0  0  0  0  0  0  0  0
   -3.9100   -0.4711   -1.0159 H   0  0  0  0  0  0  0  0  0  0  0  0
   -2.4475    0.3171   -1.6136 H   0  0  0  0  0  0  0  0  0  0  0  0
   -3.9901    1.0355    0.7890 H   0  0  0  0  0  0  0  0  0  0  0  0
   -3.9643    1.8460   -0.6281 H   0  0  0  0  0  0  0  0  0  0  0  0
  1 11  1  0
  2  4  2  0
  2  8  1  0
  3  5  1  0
  3  8  2  0
  4  9  1  0
  5  9  2  0
  6  7  1  0
  6  8  1  0
  7 10  1  0
  9 11  1  0
  1 12  1  0
  1 13  1  0
  1 14  1  0
  2 15  1  0
  3 16  1  0
  4 17  1  0
  5 18  1  0
  6 19  1  0
  6 20  1  0
  7 21  1  0
  7 22  1  0
 10 23  1  0
 10 24  1  0
M  END
