
     RDKit          3D

 24 24  0  0  0  0  0  0  0  0999 V2000
   -1.6222    0.7767   -1.7169 C   0  0  0  0  0  0  0  0  0  0  0  0
    0.7363   -0.9802   -0.3344 C   0  0  0  0  0  0  0  0  0  0  0  0
    1.0138    1.3126    0.3660 C   0  0  0  0  0  0  0  0  0  0  0  0
    2.1097   -1.1932   -0.1838 C   0  0  0  0  0  0  0  0  0  0  0  0
    2.3859    1.1015    0.5145 C   0  0  0  0  0  0  0  0  0  0  0  0
   -2.2626   -0.5474    0.3312 C   0  0  0  0  0  0  0  0  0  0  0  0
   -1.3195    0.5442   -0.2316 C   0  0  0  0  0  0  0  0  0  0  0  0
    0.1677    0.2724   -0.0542 C   0  0  0  0  0  0  0  0  0  0  0  0
    2.9228   -0.1488    0.2409 C   0  0  0  0  0  0  0  0  0  0  0  0
   -2.0851   -0.7856    1.7625 N   0  0  0  0  0  0  0  0  0  0  0  0
    4.2670   -0.3139    0.4004 O   0  0  0  0  0  0  0  0  0  0  0  0
   -1.0077    1.5884   -2.1226 H   0  0  0  0  0  0  0  0  0  0  0  0
   -1.4243   -0.1208   -2.3139 H   0  0  0  0  0  0  0  0  0  0  0  0
   -2.6728    1.0513   -1.8605 H   0  0  0  0  0  0  0  0  0  0  0  0
    0.1148   -1.8064   -0.6694 H   0  0  0  0  0  0  0  0  0  0  0  0
    0.6093    2.2986    0.5820 H   0  0  0  0  0  0  0  0  0  0  0  0
    2.5194   -2.1740   -0.4015 H   0  0  0  0  0  0  0  0  0  0  0  0
    3.0316    1.9102    0.8435 H   0  0  0  0  0  0  0  0  0  0  0  0
   -2.1277   -1.4952   -0.2013 H   0  0  0  0  0  0  0  0  0  0  0  0
   -3.3015   -0.2382    0.1638 H   0  0  0  0  0  0  0  0  0  0  0  0
   -1.5611    1.4758    0.2996 H   0  0  0  0  0  0  0  0  0  0  0  0
   -2.8339   -1.3824    2.1088 H   0  0  0  0  0  0  0  0  0  0  0  0
   -2.1458    0.0933    2.2737 H   0  0  0  0  0  0  0  0  0  0  0  0
    4.4860   -1.2389    0.2030 H   0  0  0  0  0  0  0  0  0  0  0  0
  1  7  1  0
  2  4  2  0
  2  8  1  0
  3  5  1  0
  3  8  2  0
  4  9  1  0
  5  9  2  0
  6  7  1  0
  6 10  1  0
  7  8  1  0
  9 11  1  0
  1 12  1  0
  1 13  1  0
  1 14  1  0
  2 15  1  0
  3 16  1  0
  4 17  1  0
  5 18  1  0
  6 19  1  0
  6 20  1  0
  7 21  1  0
 10 22  1  0
 10 23  1  0
 11 24  1  0
M  END
