
     RDKit          3D

 26 26  0  0  0  0  0  0  0  0999 V2000
   -2.2580   -0.9679    0.7402 C   0  0  0  0  0  0  0  0  0  0  0  0
    1.0242    0.3016    1.4895 C   0  0  0  0  0  0  0  0  0  0  0  0
    2.2969   -0.2576    1.6426 C   0  0  0  0  0  0  0  0  0  0  0  0
   -0.9072    1.0961    0.0535 C   0  0  0  0  0  0  0  0  0  0  0  0
    1.2168    0.1266   -0.9183 C   0  0  0  0  0  0  0  0  0  0  0  0
   -1.9886    0.0686   -0.3559 C   0  0  0  0  0  0  0  0  0  0  0  0
    0.4730    0.4978    0.2112 C   0  0  0  0  0  0  0  0  0  0  0  0
    3.0178   -0.6199    0.5121 C   0  0  0  0  0  0  0  0  0  0  0  0
    2.4789   -0.4277   -0.7568 C   0  0  0  0  0  0  0  0  0  0  0  0
   -3.2553    0.7208   -0.7560 N   0  0  0  0  0  0  0  0  0  0  0  0
    4.2666   -1.1714    0.5963 O   0  0  0  0  0  0  0  0  0  0  0  0
    3.1951   -0.7870   -1.8629 O   0  0  0  0  0  0  0  0  0  0  0  0
   -3.7322    1.4808    0.3886 O   0  0  0  0  0  0  0  0  0  0  0  0
   -2.5425   -0.4959    1.6868 H   0  0  0  0  0  0  0  0  0  0  0  0
   -3.0652   -1.6476    0.4444 H   0  0  0  0  0  0  0  0  0  0  0  0
   -1.3717   -1.5836    0.9246 H   0  0  0  0  0  0  0  0  0  0  0  0
    0.4591    0.5833    2.3761 H   0  0  0  0  0  0  0  0  0  0  0  0
    2.6987   -0.3990    2.6405 H   0  0  0  0  0  0  0  0  0  0  0  0
   -1.1942    1.6035    0.9838 H   0  0  0  0  0  0  0  0  0  0  0  0
   -0.8399    1.8872   -0.7059 H   0  0  0  0  0  0  0  0  0  0  0  0
    0.8210    0.2674   -1.9203 H   0  0  0  0  0  0  0  0  0  0  0  0
   -1.6389   -0.4770   -1.2412 H   0  0  0  0  0  0  0  0  0  0  0  0
   -3.0515    1.4579   -1.4370 H   0  0  0  0  0  0  0  0  0  0  0  0
    4.5019   -1.2384    1.5376 H   0  0  0  0  0  0  0  0  0  0  0  0
    4.0317   -1.1443   -1.5041 H   0  0  0  0  0  0  0  0  0  0  0  0
   -4.6364    1.1256    0.4992 H   0  0  0  0  0  0  0  0  0  0  0  0
  1  6  1  0
  2  3  2  0
  2  7  1  0
  3  8  1  0
  4  6  1  0
  4  7  1  0
  5  7  2  0
  5  9  1  0
  6 10  1  0
  8  9  2  0
  8 11  1  0
  9 12  1  0
 10 13  1  0
  1 14  1  0
  1 15  1  0
  1 16  1  0
  2 17  1  0
  3 18  1  0
  4 19  1  0
  4 20  1  0
  5 21  1  0
  6 22  1  0
 10 23  1  0
 11 24  1  0
 12 25  1  0
 13 26  1  0
M  END
