
     RDKit          3D

 21 22  0  0  0  0  0  0  0  0999 V2000
    0.0360    3.1864    0.1458 C   0  0  0  0  0  0  0  0  0  0  0  0
    1.0823    0.5579   -0.0913 C   0  0  0  0  0  0  0  0  0  0  0  0
    0.6434   -1.8503   -0.1568 C   0  0  0  0  0  0  0  0  0  0  0  0
    2.9754   -1.0492   -0.3723 C   0  0  0  0  0  0  0  0  0  0  0  0
   -2.8402   -1.5962    0.2333 C   0  0  0  0  0  0  0  0  0  0  0  0
    1.5344   -0.7754   -0.2030 C   0  0  0  0  0  0  0  0  0  0  0  0
   -0.2796    0.8322    0.0694 C   0  0  0  0  0  0  0  0  0  0  0  0
   -0.6913   -1.5496    0.0023 C   0  0  0  0  0  0  0  0  0  0  0  0
   -1.1425   -0.2522    0.1122 C   0  0  0  0  0  0  0  0  0  0  0  0
    3.8044   -0.1493   -0.4200 O   0  0  0  0  0  0  0  0  0  0  0  0
   -0.8425    2.0691    0.1887 O   0  0  0  0  0  0  0  0  0  0  0  0
   -1.6979   -2.4620    0.0687 O   0  0  0  0  0  0  0  0  0  0  0  0
   -2.4973   -0.1989    0.2618 O   0  0  0  0  0  0  0  0  0  0  0  0
   -0.5690    4.0918    0.2540 H   0  0  0  0  0  0  0  0  0  0  0  0
    0.7483    3.1604    0.9770 H   0  0  0  0  0  0  0  0  0  0  0  0
    0.5535    3.2447   -0.8175 H   0  0  0  0  0  0  0  0  0  0  0  0
    1.8190    1.3556   -0.1338 H   0  0  0  0  0  0  0  0  0  0  0  0
    0.9692   -2.8806   -0.2405 H   0  0  0  0  0  0  0  0  0  0  0  0
    3.2717   -2.1085   -0.4542 H   0  0  0  0  0  0  0  0  0  0  0  0
   -3.5347   -1.7715   -0.5963 H   0  0  0  0  0  0  0  0  0  0  0  0
   -3.3427   -1.8545    1.1725 H   0  0  0  0  0  0  0  0  0  0  0  0
  1 11  1  0
  2  6  2  0
  2  7  1  0
  3  6  1  0
  3  8  2  0
  4  6  1  0
  4 10  2  0
  5 12  1  0
  5 13  1  0
  7  9  2  0
  7 11  1  0
  8  9  1  0
  8 12  1  0
  9 13  1  0
  1 14  1  0
  1 15  1  0
  1 16  1  0
  2 17  1  0
  3 18  1  0
  4 19  1  0
  5 20  1  0
  5 21  1  0
M  END
