
     RDKit          3D

 23 24  0  0  0  0  0  0  0  0999 V2000
   -0.1425   -0.0717   -1.7281 C   0  0  0  0  0  0  0  0  0  0  0  0
    1.1753   -0.5073   -1.8972 C   0  0  0  0  0  0  0  0  0  0  0  0
   -1.9874    1.0094   -0.3619 C   0  0  0  0  0  0  0  0  0  0  0  0
   -2.9538   -0.1274   -0.0009 C   0  0  0  0  0  0  0  0  0  0  0  0
    0.3710    0.7405    0.5104 C   0  0  0  0  0  0  0  0  0  0  0  0
   -0.5541    0.5551   -0.5295 C   0  0  0  0  0  0  0  0  0  0  0  0
    2.0545   -0.3060   -0.8560 C   0  0  0  0  0  0  0  0  0  0  0  0
    1.6634    0.3008    0.3158 C   0  0  0  0  0  0  0  0  0  0  0  0
    3.7359   -0.2099    0.4637 C   0  0  0  0  0  0  0  0  0  0  0  0
    4.7486    0.6835    0.3392 F   0  0  0  0  0  0  0  0  0  0  0  0
    4.2094   -1.2677    1.1681 F   0  0  0  0  0  0  0  0  0  0  0  0
   -2.7260   -0.6534    1.3449 N   0  0  0  0  0  0  0  0  0  0  0  0
    3.3659   -0.6645   -0.8453 O   0  0  0  0  0  0  0  0  0  0  0  0
    2.6784    0.4007    1.2150 O   0  0  0  0  0  0  0  0  0  0  0  0
   -0.8552   -0.2187   -2.5379 H   0  0  0  0  0  0  0  0  0  0  0  0
    1.4943   -0.9862   -2.8166 H   0  0  0  0  0  0  0  0  0  0  0  0
   -2.0422    1.8049    0.3927 H   0  0  0  0  0  0  0  0  0  0  0  0
   -2.3152    1.4726   -1.3017 H   0  0  0  0  0  0  0  0  0  0  0  0
   -3.9795    0.2544   -0.0480 H   0  0  0  0  0  0  0  0  0  0  0  0
   -2.8758   -0.9451   -0.7264 H   0  0  0  0  0  0  0  0  0  0  0  0
    0.0825    1.2127    1.4449 H   0  0  0  0  0  0  0  0  0  0  0  0
   -1.7850   -1.0452    1.3969 H   0  0  0  0  0  0  0  0  0  0  0  0
   -3.3625   -1.4314    1.5143 H   0  0  0  0  0  0  0  0  0  0  0  0
  1  2  2  0
  1  6  1  0
  2  7  1  0
  3  4  1  0
  3  6  1  0
  4 12  1  0
  5  6  2  0
  5  8  1  0
  7  8  2  0
  7 13  1  0
  8 14  1  0
  9 10  1  0
  9 11  1  0
  9 13  1  0
  9 14  1  0
  1 15  1  0
  2 16  1  0
  3 17  1  0
  3 18  1  0
  4 19  1  0
  4 20  1  0
  5 21  1  0
 12 22  1  0
 12 23  1  0
M  END
