
     RDKit          3D

 31 33  0  0  0  0  0  0  0  0999 V2000
    4.3385   -0.3451   -0.1042 C   0  0  0  0  0  0  0  0  0  0  0  0
    3.7167   -1.3193   -0.8845 C   0  0  0  0  0  0  0  0  0  0  0  0
    3.5720    0.5207    0.6759 C   0  0  0  0  0  0  0  0  0  0  0  0
    2.3249   -1.4238   -0.8927 C   0  0  0  0  0  0  0  0  0  0  0  0
    2.1792    0.4202    0.6710 C   0  0  0  0  0  0  0  0  0  0  0  0
   -2.2296    2.9544   -0.0199 C   0  0  0  0  0  0  0  0  0  0  0  0
   -2.6006    1.8758    0.7860 C   0  0  0  0  0  0  0  0  0  0  0  0
   -0.4004    1.6500   -0.9043 C   0  0  0  0  0  0  0  0  0  0  0  0
    1.5501   -0.5442   -0.1268 C   0  0  0  0  0  0  0  0  0  0  0  0
   -1.1338    2.8328   -0.8665 C   0  0  0  0  0  0  0  0  0  0  0  0
   -0.7629    0.5720   -0.0776 C   0  0  0  0  0  0  0  0  0  0  0  0
   -1.8892    0.6679    0.7595 C   0  0  0  0  0  0  0  0  0  0  0  0
    0.0577   -0.6758   -0.1507 C   0  0  0  0  0  0  0  0  0  0  0  0
   -2.3670   -1.5602    1.1625 C   0  0  0  0  0  0  0  0  0  0  0  0
   -1.8749   -2.0768   -0.1987 C   0  0  0  0  0  0  0  0  0  0  0  0
   -0.6786    4.1521   -1.8713 Cl  0  0  0  0  0  0  0  0  0  0  0  0
   -2.3563   -0.3474    1.6098 N   0  0  0  0  0  0  0  0  0  0  0  0
   -0.4262   -1.8712   -0.2543 N   0  0  0  0  0  0  0  0  0  0  0  0
   -2.8368   -2.5051    1.9952 O   0  0  0  0  0  0  0  0  0  0  0  0
   -2.5704   -1.5451   -1.3061 O   0  0  0  0  0  0  0  0  0  0  0  0
    5.4231   -0.2679   -0.0954 H   0  0  0  0  0  0  0  0  0  0  0  0
    4.3154   -2.0024   -1.4819 H   0  0  0  0  0  0  0  0  0  0  0  0
    4.0609    1.2685    1.2956 H   0  0  0  0  0  0  0  0  0  0  0  0
    1.8487   -2.1924   -1.4969 H   0  0  0  0  0  0  0  0  0  0  0  0
    1.6028    1.0868    1.3071 H   0  0  0  0  0  0  0  0  0  0  0  0
   -2.8047    3.8759    0.0153 H   0  0  0  0  0  0  0  0  0  0  0  0
   -3.4649    1.9690    1.4407 H   0  0  0  0  0  0  0  0  0  0  0  0
    0.4459    1.5687   -1.5821 H   0  0  0  0  0  0  0  0  0  0  0  0
   -2.0492   -3.1584   -0.2164 H   0  0  0  0  0  0  0  0  0  0  0  0
   -3.0950   -2.0541    2.8159 H   0  0  0  0  0  0  0  0  0  0  0  0
   -1.8955   -1.5255   -2.0041 H   0  0  0  0  0  0  0  0  0  0  0  0
  1  2  2  0
  1  3  1  0
  2  4  1  0
  3  5  2  0
  4  9  2  0
  5  9  1  0
  6  7  2  0
  6 10  1  0
  7 12  1  0
  8 10  2  0
  8 11  1  0
  9 13  1  0
 10 16  1  0
 11 12  2  0
 11 13  1  0
 12 17  1  0
 13 18  2  0
 14 15  1  0
 14 17  2  0
 14 19  1  0
 15 18  1  0
 15 20  1  0
  1 21  1  0
  2 22  1  0
  3 23  1  0
  4 24  1  0
  5 25  1  0
  6 26  1  0
  7 27  1  0
  8 28  1  0
 15 29  1  0
 19 30  1  0
 20 31  1  0
M  END
