
     RDKit          3D

 35 37  0  0  0  0  0  0  0  0999 V2000
   -2.5523    1.9119   -2.3259 C   0  0  0  0  0  0  0  0  0  0  0  0
    4.4705   -1.1702   -0.3392 C   0  0  0  0  0  0  0  0  0  0  0  0
    4.3470   -0.1830    0.6379 C   0  0  0  0  0  0  0  0  0  0  0  0
    3.3692   -1.5260   -1.1178 C   0  0  0  0  0  0  0  0  0  0  0  0
    3.1177    0.4443    0.8446 C   0  0  0  0  0  0  0  0  0  0  0  0
    2.1369   -0.9012   -0.9148 C   0  0  0  0  0  0  0  0  0  0  0  0
   -2.7680   -1.7326   -0.1001 C   0  0  0  0  0  0  0  0  0  0  0  0
   -2.7547   -0.4687   -0.7012 C   0  0  0  0  0  0  0  0  0  0  0  0
   -0.5803   -1.2924    0.8386 C   0  0  0  0  0  0  0  0  0  0  0  0
   -0.5324    2.7158    0.8124 C   0  0  0  0  0  0  0  0  0  0  0  0
    2.0045    0.0763    0.0799 C   0  0  0  0  0  0  0  0  0  0  0  0
   -1.6832   -2.1352    0.6797 C   0  0  0  0  0  0  0  0  0  0  0  0
   -0.5629   -0.0315    0.2103 C   0  0  0  0  0  0  0  0  0  0  0  0
   -1.6712    0.4177   -0.5378 C   0  0  0  0  0  0  0  0  0  0  0  0
   -1.2176    2.8742   -0.5379 C   0  0  0  0  0  0  0  0  0  0  0  0
    0.6960    0.7626    0.3243 C   0  0  0  0  0  0  0  0  0  0  0  0
    0.7338    2.0149    0.6304 N   0  0  0  0  0  0  0  0  0  0  0  0
   -1.7430    1.7179   -1.1296 N   0  0  0  0  0  0  0  0  0  0  0  0
   -1.6967   -3.4541    1.3253 N   0  0  0  0  0  4  0  0  0  0  0  0
   -1.3573    3.9930   -1.0408 O   0  0  0  0  0  0  0  0  0  0  0  0
   -2.6945   -4.1674    1.1532 O   0  0  0  0  0  1  0  0  0  0  0  0
   -0.7086   -3.7735    1.9997 O   0  0  0  0  0  0  0  0  0  0  0  0
   -2.2043    2.7781   -2.8975 H   0  0  0  0  0  0  0  0  0  0  0  0
   -2.4838    1.0384   -2.9821 H   0  0  0  0  0  0  0  0  0  0  0  0
   -3.5908    2.0900   -2.0298 H   0  0  0  0  0  0  0  0  0  0  0  0
    5.4304   -1.6548   -0.5016 H   0  0  0  0  0  0  0  0  0  0  0  0
    5.2089    0.1037    1.2352 H   0  0  0  0  0  0  0  0  0  0  0  0
    3.4750   -2.2841   -1.8901 H   0  0  0  0  0  0  0  0  0  0  0  0
    3.0307    1.2205    1.6019 H   0  0  0  0  0  0  0  0  0  0  0  0
    1.3003   -1.1726   -1.5521 H   0  0  0  0  0  0  0  0  0  0  0  0
   -3.6360   -2.3754   -0.2392 H   0  0  0  0  0  0  0  0  0  0  0  0
   -3.6386   -0.1771   -1.2654 H   0  0  0  0  0  0  0  0  0  0  0  0
    0.2707   -1.6092    1.4408 H   0  0  0  0  0  0  0  0  0  0  0  0
   -0.3211    3.7168    1.2050 H   0  0  0  0  0  0  0  0  0  0  0  0
   -1.1944    2.2329    1.5400 H   0  0  0  0  0  0  0  0  0  0  0  0
  1 18  1  0
  2  3  2  0
  2  4  1  0
  3  5  1  0
  4  6  2  0
  5 11  2  0
  6 11  1  0
  7  8  2  0
  7 12  1  0
  8 14  1  0
  9 12  2  0
  9 13  1  0
 10 15  1  0
 10 17  1  0
 11 16  1  0
 12 19  1  0
 13 14  2  0
 13 16  1  0
 14 18  1  0
 15 18  1  0
 15 20  2  0
 16 17  2  0
 19 21  1  0
 19 22  2  0
  1 23  1  0
  1 24  1  0
  1 25  1  0
  2 26  1  0
  3 27  1  0
  4 28  1  0
  5 29  1  0
  6 30  1  0
  7 31  1  0
  8 32  1  0
  9 33  1  0
 10 34  1  0
 10 35  1  0
M  CHG  2  19   1  21  -1
M  END
