
     RDKit          3D

 35 37  0  0  0  0  0  0  0  0999 V2000
    3.3249   -2.3544    0.7154 C   0  0  0  0  0  0  0  0  0  0  0  0
   -4.0886   -1.4468   -0.4433 C   0  0  0  0  0  0  0  0  0  0  0  0
   -3.1653   -1.9974    0.4454 C   0  0  0  0  0  0  0  0  0  0  0  0
   -3.7001   -0.4317   -1.3175 C   0  0  0  0  0  0  0  0  0  0  0  0
   -1.8504   -1.5308    0.4644 C   0  0  0  0  0  0  0  0  0  0  0  0
   -2.3857    0.0372   -1.3026 C   0  0  0  0  0  0  0  0  0  0  0  0
    0.5949    3.7835    1.3070 C   0  0  0  0  0  0  0  0  0  0  0  0
    1.6615    3.1689    0.7833 C   0  0  0  0  0  0  0  0  0  0  0  0
   -0.8113    1.8234    1.1153 C   0  0  0  0  0  0  0  0  0  0  0  0
    2.2622   -0.5782   -1.3182 C   0  0  0  0  0  0  0  0  0  0  0  0
   -1.4530   -0.5063   -0.4062 C   0  0  0  0  0  0  0  0  0  0  0  0
   -0.6312    3.0755    1.5557 C   0  0  0  0  0  0  0  0  0  0  0  0
    0.2254    1.1013    0.3582 C   0  0  0  0  0  0  0  0  0  0  0  0
    1.6268    1.7145    0.4318 C   0  0  0  0  0  0  0  0  0  0  0  0
    2.8338   -0.1659    0.0211 C   0  0  0  0  0  0  0  0  0  0  0  0
   -0.0461   -0.0095   -0.3861 C   0  0  0  0  0  0  0  0  0  0  0  0
   -1.8827    3.8987    2.4094 Cl  0  0  0  0  0  0  0  0  0  0  0  0
    3.3271   -0.9184    0.9431 N   0  0  0  0  0  0  0  0  0  0  0  0
    2.7942    1.1738    0.2738 N   0  0  0  0  0  0  0  0  0  0  0  0
    0.8184   -0.7573   -1.1956 N   0  0  0  0  0  0  0  0  0  0  0  0
    0.4024   -1.9652   -1.7757 O   0  0  0  0  0  0  0  0  0  0  0  0
    2.3265   -2.7313    0.4717 H   0  0  0  0  0  0  0  0  0  0  0  0
    3.6431   -2.8591    1.6332 H   0  0  0  0  0  0  0  0  0  0  0  0
    4.0324   -2.6330   -0.0720 H   0  0  0  0  0  0  0  0  0  0  0  0
   -5.1127   -1.8119   -0.4559 H   0  0  0  0  0  0  0  0  0  0  0  0
   -3.4679   -2.7928    1.1218 H   0  0  0  0  0  0  0  0  0  0  0  0
   -4.4220   -0.0056   -2.0096 H   0  0  0  0  0  0  0  0  0  0  0  0
   -1.1314   -1.9715    1.1520 H   0  0  0  0  0  0  0  0  0  0  0  0
   -2.0915    0.8293   -1.9874 H   0  0  0  0  0  0  0  0  0  0  0  0
    0.6540    4.8318    1.5836 H   0  0  0  0  0  0  0  0  0  0  0  0
    2.6068    3.6823    0.6474 H   0  0  0  0  0  0  0  0  0  0  0  0
   -1.7602    1.3335    1.3117 H   0  0  0  0  0  0  0  0  0  0  0  0
    2.4645    0.2079   -2.0550 H   0  0  0  0  0  0  0  0  0  0  0  0
    2.7515   -1.4881   -1.6791 H   0  0  0  0  0  0  0  0  0  0  0  0
   -0.3502   -1.7063   -2.3412 H   0  0  0  0  0  0  0  0  0  0  0  0
  1 18  1  0
  2  3  2  0
  2  4  1  0
  3  5  1  0
  4  6  2  0
  5 11  2  0
  6 11  1  0
  7  8  2  0
  7 12  1  0
  8 14  1  0
  9 12  2  0
  9 13  1  0
 10 15  1  0
 10 20  1  0
 11 16  1  0
 12 17  1  0
 13 14  1  0
 13 16  2  0
 14 19  2  0
 15 18  2  3
 15 19  1  0
 16 20  1  0
 20 21  1  0
  1 22  1  0
  1 23  1  0
  1 24  1  0
  2 25  1  0
  3 26  1  0
  4 27  1  0
  5 28  1  0
  6 29  1  0
  7 30  1  0
  8 31  1  0
  9 32  1  0
 10 33  1  0
 10 34  1  0
 21 35  1  0
M  END
