
     RDKit          3D

 36 38  0  0  0  0  0  0  0  0999 V2000
    4.1984    1.3625   -1.1149 C   0  0  0  0  0  0  0  0  0  0  0  0
    4.2813    0.3245   -2.0438 C   0  0  0  0  0  0  0  0  0  0  0  0
    3.0442    1.5231   -0.3438 C   0  0  0  0  0  0  0  0  0  0  0  0
    3.2069   -0.5493   -2.2086 C   0  0  0  0  0  0  0  0  0  0  0  0
   -1.2383   -2.7100    1.6908 C   0  0  0  0  0  0  0  0  0  0  0  0
   -2.0017   -1.6805    1.1285 C   0  0  0  0  0  0  0  0  0  0  0  0
    0.7497   -1.3849    1.4121 C   0  0  0  0  0  0  0  0  0  0  0  0
   -0.8444    2.2593    1.3357 C   0  0  0  0  0  0  0  0  0  0  0  0
   -3.3176    0.1258   -0.8079 C   0  0  0  0  0  0  0  0  0  0  0  0
    0.1330   -2.5550    1.8351 C   0  0  0  0  0  0  0  0  0  0  0  0
    1.9698    0.6359   -0.4916 C   0  0  0  0  0  0  0  0  0  0  0  0
   -0.0110   -0.3575    0.8216 C   0  0  0  0  0  0  0  0  0  0  0  0
    2.0570   -0.3872   -1.4387 C   0  0  0  0  0  0  0  0  0  0  0  0
   -1.4117   -0.4792    0.6907 C   0  0  0  0  0  0  0  0  0  0  0  0
   -1.9757    1.9271    0.3571 C   0  0  0  0  0  0  0  0  0  0  0  0
    0.7436    0.8351    0.3381 C   0  0  0  0  0  0  0  0  0  0  0  0
   -2.7996   -0.2432   -2.1999 C   0  0  0  0  0  0  0  0  0  0  0  0
    1.0682   -3.8099    2.5458 Cl  0  0  0  0  0  0  0  0  0  0  0  0
    1.0340   -1.2296   -1.6438 F   0  0  0  0  0  0  0  0  0  0  0  0
   -3.8391   -0.4983   -3.0310 F   0  0  0  0  0  0  0  0  0  0  0  0
   -2.0423   -1.3634   -2.1615 F   0  0  0  0  0  0  0  0  0  0  0  0
   -2.0631    0.7376   -2.7587 F   0  0  0  0  0  0  0  0  0  0  0  0
    0.4082    2.0517    0.6143 N   0  0  0  0  0  0  0  0  0  0  0  0
   -2.2558    0.5608    0.1516 N   0  0  0  0  0  0  0  0  0  0  0  0
   -2.8056    3.2158   -0.3557 S   0  0  0  0  0  0  0  0  0  0  0  0
    5.0294    2.0542   -0.9954 H   0  0  0  0  0  0  0  0  0  0  0  0
    5.1780    0.2048   -2.6474 H   0  0  0  0  0  0  0  0  0  0  0  0
    2.9837    2.3430    0.3691 H   0  0  0  0  0  0  0  0  0  0  0  0
    3.2530   -1.3506   -2.9400 H   0  0  0  0  0  0  0  0  0  0  0  0
   -1.7278   -3.6204    2.0291 H   0  0  0  0  0  0  0  0  0  0  0  0
   -3.0768   -1.8326    1.0995 H   0  0  0  0  0  0  0  0  0  0  0  0
    1.8241   -1.2749    1.5392 H   0  0  0  0  0  0  0  0  0  0  0  0
   -0.8928    3.3061    1.6560 H   0  0  0  0  0  0  0  0  0  0  0  0
   -0.9132    1.6607    2.2515 H   0  0  0  0  0  0  0  0  0  0  0  0
   -4.0664    0.9143   -0.9183 H   0  0  0  0  0  0  0  0  0  0  0  0
   -3.8797   -0.7158   -0.3959 H   0  0  0  0  0  0  0  0  0  0  0  0
  1  2  2  0
  1  3  1  0
  2  4  1  0
  3 11  2  0
  4 13  2  0
  5  6  2  0
  5 10  1  0
  6 14  1  0
  7 10  2  0
  7 12  1  0
  8 15  1  0
  8 23  1  0
  9 17  1  0
  9 24  1  0
 10 18  1  0
 11 13  1  0
 11 16  1  0
 12 14  2  0
 12 16  1  0
 13 19  1  0
 14 24  1  0
 15 24  1  0
 15 25  2  0
 16 23  2  0
 17 20  1  0
 17 21  1  0
 17 22  1  0
  1 26  1  0
  2 27  1  0
  3 28  1  0
  4 29  1  0
  5 30  1  0
  6 31  1  0
  7 32  1  0
  8 33  1  0
  8 34  1  0
  9 35  1  0
  9 36  1  0
M  END
