
     RDKit          3D

 38 40  0  0  0  0  0  0  0  0999 V2000
    0.1330    3.4294    1.4673 C   0  0  0  0  0  0  0  0  0  0  0  0
   -4.8445   -2.1733    0.6495 C   0  0  0  0  0  0  0  0  0  0  0  0
    2.2397   -0.4571    0.7564 C   0  0  0  0  0  0  0  0  0  0  0  0
   -1.7892   -2.1270   -1.3033 C   0  0  0  0  0  0  0  0  0  0  0  0
   -0.6385   -1.3680   -1.5181 C   0  0  0  0  0  0  0  0  0  0  0  0
    3.3998   -1.1135    1.1749 C   0  0  0  0  0  0  0  0  0  0  0  0
   -2.5845   -0.4961    0.2786 C   0  0  0  0  0  0  0  0  0  0  0  0
    3.1151   -0.3409   -1.4895 C   0  0  0  0  0  0  0  0  0  0  0  0
   -1.2907    1.6039    0.8004 C   0  0  0  0  0  0  0  0  0  0  0  0
    0.7075    2.0855   -0.4581 C   0  0  0  0  0  0  0  0  0  0  0  0
    2.0805   -0.0620   -0.5805 C   0  0  0  0  0  0  0  0  0  0  0  0
   -1.4242    0.2771    0.0811 C   0  0  0  0  0  0  0  0  0  0  0  0
   -2.7667   -1.6990   -0.4053 C   0  0  0  0  0  0  0  0  0  0  0  0
   -0.4455   -0.1605   -0.8311 C   0  0  0  0  0  0  0  0  0  0  0  0
    0.8189    0.6565   -1.0579 C   0  0  0  0  0  0  0  0  0  0  0  0
    4.4214   -1.3859    0.2632 C   0  0  0  0  0  0  0  0  0  0  0  0
    4.2787   -0.9988   -1.0724 C   0  0  0  0  0  0  0  0  0  0  0  0
    5.8286   -2.1995    0.8488 Cl  0  0  0  0  0  0  0  0  0  0  0  0
    5.4983   -1.2997   -2.2600 Cl  0  0  0  0  0  0  0  0  0  0  0  0
    0.0951    2.0907    0.8827 N   0  0  0  0  0  0  0  0  0  0  0  0
   -3.8439   -2.5343   -0.2936 O   0  0  0  0  0  0  0  0  0  0  0  0
   -0.4096    4.1638    0.8612 H   0  0  0  0  0  0  0  0  0  0  0  0
   -0.3023    3.4224    2.4728 H   0  0  0  0  0  0  0  0  0  0  0  0
    1.1684    3.7708    1.5763 H   0  0  0  0  0  0  0  0  0  0  0  0
   -4.4345   -2.1272    1.6639 H   0  0  0  0  0  0  0  0  0  0  0  0
   -5.6129   -2.9524    0.6365 H   0  0  0  0  0  0  0  0  0  0  0  0
   -5.3240   -1.2286    0.3727 H   0  0  0  0  0  0  0  0  0  0  0  0
    1.4546   -0.2571    1.4846 H   0  0  0  0  0  0  0  0  0  0  0  0
   -1.9239   -3.0631   -1.8396 H   0  0  0  0  0  0  0  0  0  0  0  0
    0.1096   -1.7294   -2.2200 H   0  0  0  0  0  0  0  0  0  0  0  0
    3.4965   -1.4098    2.2166 H   0  0  0  0  0  0  0  0  0  0  0  0
   -3.3335   -0.1308    0.9739 H   0  0  0  0  0  0  0  0  0  0  0  0
    3.0159   -0.0461   -2.5323 H   0  0  0  0  0  0  0  0  0  0  0  0
   -1.9304    2.3305    0.2815 H   0  0  0  0  0  0  0  0  0  0  0  0
   -1.6747    1.4843    1.8213 H   0  0  0  0  0  0  0  0  0  0  0  0
    0.1051    2.7084   -1.1353 H   0  0  0  0  0  0  0  0  0  0  0  0
    1.7062    2.5404   -0.4213 H   0  0  0  0  0  0  0  0  0  0  0  0
    0.9007    0.7965   -2.1459 H   0  0  0  0  0  0  0  0  0  0  0  0
  1 20  1  0
  2 21  1  0
  3  6  2  0
  3 11  1  0
  4  5  2  0
  4 13  1  0
  5 14  1  0
  6 16  1  0
  7 12  1  0
  7 13  2  0
  8 11  2  0
  8 17  1  0
  9 12  1  0
  9 20  1  0
 10 15  1  0
 10 20  1  0
 11 15  1  0
 12 14  2  0
 13 21  1  0
 14 15  1  0
 16 17  2  0
 16 18  1  0
 17 19  1  0
  1 22  1  0
  1 23  1  0
  1 24  1  0
  2 25  1  0
  2 26  1  0
  2 27  1  0
  3 28  1  0
  4 29  1  0
  5 30  1  0
  6 31  1  0
  7 32  1  0
  8 33  1  0
  9 34  1  0
  9 35  1  0
 10 36  1  0
 10 37  1  0
 15 38  1  0
M  END
