
     RDKit          3D

 44 46  0  0  0  0  0  0  0  0999 V2000
   -2.4770    3.3952   -1.2853 C   0  0  0  0  0  0  0  0  0  0  0  0
   -1.2884    2.5785   -1.7683 C   0  0  0  0  0  0  0  0  0  0  0  0
   -1.2581    1.1521   -1.2076 C   0  0  0  0  0  0  0  0  0  0  0  0
   -3.2665   -2.9259    0.2465 C   0  0  0  0  0  0  0  0  0  0  0  0
   -3.0253   -3.0790    1.7365 C   0  0  0  0  0  0  0  0  0  0  0  0
   -1.0757    1.1131    0.3153 C   0  0  0  0  0  0  0  0  0  0  0  0
    2.1677    0.5435    1.3968 C   0  0  0  0  0  0  0  0  0  0  0  0
    3.4420    1.1241    1.4308 C   0  0  0  0  0  0  0  0  0  0  0  0
   -2.6278   -1.5876   -0.1191 C   0  0  0  0  0  0  0  0  0  0  0  0
   -1.7490   -2.2919    1.9559 C   0  0  0  0  0  0  0  0  0  0  0  0
    2.7184   -0.6111   -0.6775 C   0  0  0  0  0  0  0  0  0  0  0  0
    5.9952    0.6412   -0.9380 C   0  0  0  0  0  0  0  0  0  0  0  0
    1.7962   -0.3176    0.3410 C   0  0  0  0  0  0  0  0  0  0  0  0
   -0.7597   -0.2659    0.9435 C   0  0  0  0  0  0  0  0  0  0  0  0
    4.3150    0.8220    0.4091 C   0  0  0  0  0  0  0  0  0  0  0  0
    3.9636   -0.0234   -0.6153 C   0  0  0  0  0  0  0  0  0  0  0  0
    0.4461   -0.9600    0.2606 C   0  0  0  0  0  0  0  0  0  0  0  0
   -1.9531   -1.1271    1.0936 N   0  0  0  0  0  0  0  0  0  0  0  0
    0.3640   -2.0132   -0.3732 O   0  0  0  0  0  0  0  0  0  0  0  0
    5.5840    1.2920    0.2830 O   0  0  0  0  0  0  0  0  0  0  0  0
    4.9680   -0.1906   -1.5163 O   0  0  0  0  0  0  0  0  0  0  0  0
   -2.4225    3.5849   -0.2093 H   0  0  0  0  0  0  0  0  0  0  0  0
   -3.4197    2.8823   -1.4999 H   0  0  0  0  0  0  0  0  0  0  0  0
   -2.4963    4.3656   -1.7918 H   0  0  0  0  0  0  0  0  0  0  0  0
   -0.3586    3.1000   -1.5127 H   0  0  0  0  0  0  0  0  0  0  0  0
   -1.3272    2.5200   -2.8627 H   0  0  0  0  0  0  0  0  0  0  0  0
   -0.4352    0.6206   -1.6978 H   0  0  0  0  0  0  0  0  0  0  0  0
   -2.1824    0.6473   -1.4999 H   0  0  0  0  0  0  0  0  0  0  0  0
   -4.3328   -2.9611    0.0028 H   0  0  0  0  0  0  0  0  0  0  0  0
   -2.7655   -3.7369   -0.2954 H   0  0  0  0  0  0  0  0  0  0  0  0
   -3.8543   -2.6335    2.3003 H   0  0  0  0  0  0  0  0  0  0  0  0
   -2.9312   -4.1266    2.0368 H   0  0  0  0  0  0  0  0  0  0  0  0
   -0.2656    1.8051    0.5778 H   0  0  0  0  0  0  0  0  0  0  0  0
   -1.9733    1.5181    0.8001 H   0  0  0  0  0  0  0  0  0  0  0  0
    1.4888    0.7689    2.2139 H   0  0  0  0  0  0  0  0  0  0  0  0
    3.7379    1.7865    2.2373 H   0  0  0  0  0  0  0  0  0  0  0  0
   -1.9703   -1.7225   -0.9826 H   0  0  0  0  0  0  0  0  0  0  0  0
   -3.4099   -0.8736   -0.3973 H   0  0  0  0  0  0  0  0  0  0  0  0
   -1.6339   -2.0074    3.0065 H   0  0  0  0  0  0  0  0  0  0  0  0
   -0.8848   -2.8960    1.6592 H   0  0  0  0  0  0  0  0  0  0  0  0
    2.4661   -1.2790   -1.4957 H   0  0  0  0  0  0  0  0  0  0  0  0
    6.2762    1.4097   -1.6672 H   0  0  0  0  0  0  0  0  0  0  0  0
    6.8726    0.0193   -0.7257 H   0  0  0  0  0  0  0  0  0  0  0  0
   -0.4577   -0.0601    1.9777 H   0  0  0  0  0  0  0  0  0  0  0  0
  1  2  1  0
  2  3  1  0
  3  6  1  0
  4  5  1  0
  4  9  1  0
  5 10  1  0
  6 14  1  0
  7  8  2  0
  7 13  1  0
  8 15  1  0
  9 18  1  0
 10 18  1  0
 11 13  2  0
 11 16  1  0
 12 20  1  0
 12 21  1  0
 13 17  1  0
 14 17  1  0
 14 18  1  0
 15 16  2  0
 15 20  1  0
 16 21  1  0
 17 19  2  0
  1 22  1  0
  1 23  1  0
  1 24  1  0
  2 25  1  0
  2 26  1  0
  3 27  1  0
  3 28  1  0
  4 29  1  0
  4 30  1  0
  5 31  1  0
  5 32  1  0
  6 33  1  0
  6 34  1  0
  7 35  1  0
  8 36  1  0
  9 37  1  0
  9 38  1  0
 10 39  1  0
 10 40  1  0
 11 41  1  0
 12 42  1  0
 12 43  1  0
 14 44  1  0
M  END
