
     RDKit          3D

 40 43  0  0  0  0  0  0  0  0999 V2000
   -1.9840    3.0222   -1.0957 C   0  0  0  0  0  0  0  0  0  0  0  0
    3.7423    1.2551   -0.1972 C   0  0  0  0  0  0  0  0  0  0  0  0
    4.2047    0.6895    0.9769 C   0  0  0  0  0  0  0  0  0  0  0  0
    2.4315    1.0086   -0.6181 C   0  0  0  0  0  0  0  0  0  0  0  0
    3.3515   -0.1173    1.7201 C   0  0  0  0  0  0  0  0  0  0  0  0
   -1.4316   -4.0940   -0.3293 C   0  0  0  0  0  0  0  0  0  0  0  0
   -1.9572   -3.1382    0.5400 C   0  0  0  0  0  0  0  0  0  0  0  0
    0.0556   -2.4200   -1.1911 C   0  0  0  0  0  0  0  0  0  0  0  0
   -1.0645    1.2571    1.3253 C   0  0  0  0  0  0  0  0  0  0  0  0
   -0.5713    1.3162   -2.2789 C   0  0  0  0  0  0  0  0  0  0  0  0
   -0.7690    2.1098   -0.9985 C   0  0  0  0  0  0  0  0  0  0  0  0
   -0.4135   -3.7298   -1.1898 C   0  0  0  0  0  0  0  0  0  0  0  0
    1.5218    0.1885    0.1078 C   0  0  0  0  0  0  0  0  0  0  0  0
   -0.4872   -1.4214   -0.3323 C   0  0  0  0  0  0  0  0  0  0  0  0
    2.0298   -0.3687    1.3013 C   0  0  0  0  0  0  0  0  0  0  0  0
   -1.5011   -1.8021    0.5744 C   0  0  0  0  0  0  0  0  0  0  0  0
   -1.9111    0.1655    1.9236 C   0  0  0  0  0  0  0  0  0  0  0  0
    0.0811   -0.0093   -0.4614 C   0  0  0  0  0  0  0  0  0  0  0  0
    0.2693   -4.8915   -2.2572 Cl  0  0  0  0  0  0  0  0  0  0  0  0
    1.1412   -1.3756    2.3851 Cl  0  0  0  0  0  0  0  0  0  0  0  0
   -2.1041   -1.0655    1.6078 N   0  0  0  0  0  0  0  0  0  0  0  0
   -0.9023    1.0026   -0.0789 N   0  0  0  0  0  0  0  0  0  0  0  0
   -2.5759    0.5821    3.0205 O   0  0  0  0  0  0  0  0  0  0  0  0
    0.2262    0.1814   -1.9105 O   0  0  0  0  0  0  0  0  0  0  0  0
   -1.8745    3.7167   -1.9356 H   0  0  0  0  0  0  0  0  0  0  0  0
   -2.9059    2.4510   -1.2533 H   0  0  0  0  0  0  0  0  0  0  0  0
   -2.1093    3.6191   -0.1871 H   0  0  0  0  0  0  0  0  0  0  0  0
    4.3960    1.8844   -0.7963 H   0  0  0  0  0  0  0  0  0  0  0  0
    5.2218    0.8702    1.3136 H   0  0  0  0  0  0  0  0  0  0  0  0
    2.1311    1.4707   -1.5568 H   0  0  0  0  0  0  0  0  0  0  0  0
    3.7242   -0.5582    2.6434 H   0  0  0  0  0  0  0  0  0  0  0  0
   -1.8123   -5.1105   -0.3113 H   0  0  0  0  0  0  0  0  0  0  0  0
   -2.7378   -3.4419    1.2364 H   0  0  0  0  0  0  0  0  0  0  0  0
    0.8553   -2.1551   -1.8825 H   0  0  0  0  0  0  0  0  0  0  0  0
   -1.6190    2.1896    1.4825 H   0  0  0  0  0  0  0  0  0  0  0  0
   -0.1306    1.3649    1.8819 H   0  0  0  0  0  0  0  0  0  0  0  0
   -1.5127    0.9420   -2.6988 H   0  0  0  0  0  0  0  0  0  0  0  0
   -0.0465    1.8887   -3.0495 H   0  0  0  0  0  0  0  0  0  0  0  0
    0.1214    2.7069   -0.7702 H   0  0  0  0  0  0  0  0  0  0  0  0
   -3.0833   -0.1838    3.3397 H   0  0  0  0  0  0  0  0  0  0  0  0
  1 11  1  0
  2  3  2  0
  2  4  1  0
  3  5  1  0
  4 13  2  0
  5 15  2  0
  6  7  2  0
  6 12  1  0
  7 16  1  0
  8 12  2  0
  8 14  1  0
  9 17  1  0
  9 22  1  0
 10 11  1  0
 10 24  1  0
 11 22  1  0
 12 19  1  0
 13 15  1  0
 13 18  1  0
 14 16  2  0
 14 18  1  0
 15 20  1  0
 16 21  1  0
 17 21  2  0
 17 23  1  0
 18 22  1  0
 18 24  1  0
  1 25  1  0
  1 26  1  0
  1 27  1  0
  2 28  1  0
  3 29  1  0
  4 30  1  0
  5 31  1  0
  6 32  1  0
  7 33  1  0
  8 34  1  0
  9 35  1  0
  9 36  1  0
 10 37  1  0
 10 38  1  0
 11 39  1  0
 23 40  1  0
M  END
