
     RDKit          3D

 44 44  0  0  0  0  0  0  0  0999 V2000
   -1.4291   -3.1948   -1.4346 C   0  0  0  0  0  0  0  0  0  0  0  0
    6.7054    0.2848    1.5576 C   0  0  0  0  0  0  0  0  0  0  0  0
   -3.9269    1.8870    1.3737 C   0  0  0  0  0  0  0  0  0  0  0  0
   -3.4429    2.0844    0.1087 C   0  0  0  0  0  0  0  0  0  0  0  0
   -4.1444    0.6056    1.8191 C   0  0  0  0  0  0  0  0  0  0  0  0
    1.5529    2.4687    0.3549 C   0  0  0  0  0  0  0  0  0  0  0  0
   -3.1699    0.9973   -0.7282 C   0  0  0  0  0  0  0  0  0  0  0  0
   -3.8727   -0.4660    0.9876 C   0  0  0  0  0  0  0  0  0  0  0  0
    0.6087    1.7085   -0.2846 C   0  0  0  0  0  0  0  0  0  0  0  0
    2.8121    1.9619    0.6587 C   0  0  0  0  0  0  0  0  0  0  0  0
   -0.0705   -0.4521   -1.3272 C   0  0  0  0  0  0  0  0  0  0  0  0
   -0.8612   -1.1676   -0.2673 C   0  0  0  0  0  0  0  0  0  0  0  0
    2.1948   -0.0953   -0.3226 C   0  0  0  0  0  0  0  0  0  0  0  0
   -3.1085   -1.4702   -1.1339 C   0  0  0  0  0  0  0  0  0  0  0  0
    0.9315    0.4083   -0.6292 C   0  0  0  0  0  0  0  0  0  0  0  0
   -3.3854   -0.2862   -0.2878 C   0  0  0  0  0  0  0  0  0  0  0  0
    3.1422    0.6690    0.3196 C   0  0  0  0  0  0  0  0  0  0  0  0
    4.4613    0.1012    0.6245 C   0  0  0  0  0  0  0  0  0  0  0  0
   -1.8714   -2.0362   -0.7461 N   0  0  0  0  0  0  0  0  0  0  0  0
    4.7593   -1.0798    0.3139 O   0  0  0  0  0  0  0  0  0  0  0  0
    5.4341    0.8490    1.2698 O   0  0  0  0  0  0  0  0  0  0  0  0
    0.6828    0.0000    0.0000 Cl  0  0  0  0  0  0  0  0  0  0  0  0
   -1.9377   -4.0845   -0.9730 H   0  0  0  0  0  0  0  0  0  0  0  0
   -1.6908   -3.1249   -2.5237 H   0  0  0  0  0  0  0  0  0  0  0  0
   -0.3489   -3.3664   -1.2874 H   0  0  0  0  0  0  0  0  0  0  0  0
    7.3353    0.3182    0.6463 H   0  0  0  0  0  0  0  0  0  0  0  0
    6.5979   -0.7630    1.8864 H   0  0  0  0  0  0  0  0  0  0  0  0
    7.1685    0.9289    2.3282 H   0  0  0  0  0  0  0  0  0  0  0  0
   -4.1365    2.7184    2.0160 H   0  0  0  0  0  0  0  0  0  0  0  0
   -3.2666    3.0736   -0.2573 H   0  0  0  0  0  0  0  0  0  0  0  0
   -4.5316    0.4308    2.8299 H   0  0  0  0  0  0  0  0  0  0  0  0
    1.2827    3.4917    0.6198 H   0  0  0  0  0  0  0  0  0  0  0  0
   -2.7980    1.2054   -1.7002 H   0  0  0  0  0  0  0  0  0  0  0  0
   -4.0631   -1.4615    1.3904 H   0  0  0  0  0  0  0  0  0  0  0  0
   -0.3843    2.0567   -0.5427 H   0  0  0  0  0  0  0  0  0  0  0  0
    3.5486    2.5650    1.1611 H   0  0  0  0  0  0  0  0  0  0  0  0
   -0.6830    0.1480   -2.0202 H   0  0  0  0  0  0  0  0  0  0  0  0
    0.5167   -1.1989   -1.9177 H   0  0  0  0  0  0  0  0  0  0  0  0
   -0.1188   -1.7907    0.3065 H   0  0  0  0  0  0  0  0  0  0  0  0
   -1.2512   -0.4144    0.4283 H   0  0  0  0  0  0  0  0  0  0  0  0
    2.4589   -1.1222   -0.5914 H   0  0  0  0  0  0  0  0  0  0  0  0
   -3.9363   -2.2219   -1.0520 H   0  0  0  0  0  0  0  0  0  0  0  0
   -3.0809   -1.1659   -2.2010 H   0  0  0  0  0  0  0  0  0  0  0  0
   -0.6828    0.0000    0.0000 H   0  0  0  0  0  0  0  0  0  0  0  0
  1 19  1  0
  2 21  1  0
  3  4  2  0
  3  5  1  0
  4  7  1  0
  5  8  2  0
  6  9  2  0
  6 10  1  0
  7 16  2  0
  8 16  1  0
  9 15  1  0
 10 17  2  0
 11 12  1  0
 11 15  1  0
 12 19  1  0
 13 15  2  0
 13 17  1  0
 14 16  1  0
 14 19  1  0
 17 18  1  0
 18 20  2  0
 18 21  1  0
  1 23  1  0
  1 24  1  0
  1 25  1  0
  2 26  1  0
  2 27  1  0
  2 28  1  0
  3 29  1  0
  4 30  1  0
  5 31  1  0
  6 32  1  0
  7 33  1  0
  8 34  1  0
  9 35  1  0
 10 36  1  0
 11 37  1  0
 11 38  1  0
 12 39  1  0
 12 40  1  0
 13 41  1  0
 14 42  1  0
 14 43  1  0
 22 44  1  0
M  END
