
     RDKit          3D

 44 47  0  0  0  0  0  0  0  0999 V2000
   -2.7592    0.3252    1.2453 C   0  0  0  0  0  0  0  0  0  0  0  0
   -2.5176    1.9613   -0.5095 C   0  0  0  0  0  0  0  0  0  0  0  0
   -3.0671    1.3465    2.1488 C   0  0  0  0  0  0  0  0  0  0  0  0
   -2.8248    2.9814    0.3932 C   0  0  0  0  0  0  0  0  0  0  0  0
    2.8828   -0.4000    1.3944 C   0  0  0  0  0  0  0  0  0  0  0  0
    3.9858    0.3235    1.8548 C   0  0  0  0  0  0  0  0  0  0  0  0
   -3.3138   -1.3845   -1.4466 C   0  0  0  0  0  0  0  0  0  0  0  0
   -3.4250   -2.5842   -0.5098 C   0  0  0  0  0  0  0  0  0  0  0  0
    3.4206    0.1762   -0.9178 C   0  0  0  0  0  0  0  0  0  0  0  0
   -1.0671   -2.4860    0.0470 C   0  0  0  0  0  0  0  0  0  0  0  0
    0.3321   -0.4090   -0.3703 C   0  0  0  0  0  0  0  0  0  0  0  0
    6.2807    2.0758   -0.1554 C   0  0  0  0  0  0  0  0  0  0  0  0
   -2.4764    0.6142   -0.0983 C   0  0  0  0  0  0  0  0  0  0  0  0
   -0.8366   -1.2737   -0.8685 C   0  0  0  0  0  0  0  0  0  0  0  0
   -3.0962    2.6641    1.7156 C   0  0  0  0  0  0  0  0  0  0  0  0
    2.5995   -0.4523    0.0185 C   0  0  0  0  0  0  0  0  0  0  0  0
   -2.1267   -0.4558   -1.1293 C   0  0  0  0  0  0  0  0  0  0  0  0
    4.7745    0.9544    0.9149 C   0  0  0  0  0  0  0  0  0  0  0  0
    4.5009    0.8807   -0.4328 C   0  0  0  0  0  0  0  0  0  0  0  0
   -3.3907    3.6403    2.5838 F   0  0  0  0  0  0  0  0  0  0  0  0
   -2.1732   -3.3296   -0.4130 N   0  0  0  0  0  0  0  0  0  0  0  0
    1.5355   -1.1918   -0.4237 O   0  0  0  0  0  0  0  0  0  0  0  0
    5.8842    1.6950    1.1787 O   0  0  0  0  0  0  0  0  0  0  0  0
    5.4068    1.5642   -1.1833 O   0  0  0  0  0  0  0  0  0  0  0  0
   -2.7453   -0.6923    1.6220 H   0  0  0  0  0  0  0  0  0  0  0  0
   -2.3087    2.2310   -1.5432 H   0  0  0  0  0  0  0  0  0  0  0  0
   -3.2846    1.1190    3.1877 H   0  0  0  0  0  0  0  0  0  0  0  0
   -2.8547    4.0175    0.0716 H   0  0  0  0  0  0  0  0  0  0  0  0
    2.2465   -0.9270    2.1001 H   0  0  0  0  0  0  0  0  0  0  0  0
    4.2208    0.3808    2.9115 H   0  0  0  0  0  0  0  0  0  0  0  0
   -3.1822   -1.7675   -2.4684 H   0  0  0  0  0  0  0  0  0  0  0  0
   -4.2585   -0.8270   -1.4486 H   0  0  0  0  0  0  0  0  0  0  0  0
   -3.7608   -2.2818    0.4865 H   0  0  0  0  0  0  0  0  0  0  0  0
   -4.2004   -3.2600   -0.8894 H   0  0  0  0  0  0  0  0  0  0  0  0
    3.2199    0.1126   -1.9800 H   0  0  0  0  0  0  0  0  0  0  0  0
   -1.2364   -2.1819    1.0847 H   0  0  0  0  0  0  0  0  0  0  0  0
   -0.1653   -3.1091    0.0682 H   0  0  0  0  0  0  0  0  0  0  0  0
    0.4435    0.4688   -1.0200 H   0  0  0  0  0  0  0  0  0  0  0  0
    0.1515   -0.0745    0.6587 H   0  0  0  0  0  0  0  0  0  0  0  0
    6.2922    3.1700   -0.2189 H   0  0  0  0  0  0  0  0  0  0  0  0
    7.2947    1.7025   -0.3396 H   0  0  0  0  0  0  0  0  0  0  0  0
   -0.5300   -1.6932   -1.8398 H   0  0  0  0  0  0  0  0  0  0  0  0
   -1.9327    0.0914   -2.0645 H   0  0  0  0  0  0  0  0  0  0  0  0
   -1.9384   -3.7152   -1.3285 H   0  0  0  0  0  0  0  0  0  0  0  0
  1  3  2  0
  1 13  1  0
  2  4  1  0
  2 13  2  0
  3 15  1  0
  4 15  2  0
  5  6  2  0
  5 16  1  0
  6 18  1  0
  7  8  1  0
  7 17  1  0
  8 21  1  0
  9 16  2  0
  9 19  1  0
 10 14  1  0
 10 21  1  0
 11 14  1  0
 11 22  1  0
 12 23  1  0
 12 24  1  0
 13 17  1  0
 14 17  1  0
 15 20  1  0
 16 22  1  0
 18 19  2  0
 18 23  1  0
 19 24  1  0
  1 25  1  0
  2 26  1  0
  3 27  1  0
  4 28  1  0
  5 29  1  0
  6 30  1  0
  7 31  1  0
  7 32  1  0
  8 33  1  0
  8 34  1  0
  9 35  1  0
 10 36  1  0
 10 37  1  0
 11 38  1  0
 11 39  1  0
 12 40  1  0
 12 41  1  0
 14 42  1  0
 17 43  1  0
 21 44  1  0
M  END
