
     RDKit          3D

 45 47  0  0  0  0  0  0  0  0999 V2000
    3.6181   -3.5388    0.4015 C   0  0  0  0  0  0  0  0  0  0  0  0
    2.1163   -3.7409    0.4796 C   0  0  0  0  0  0  0  0  0  0  0  0
   -5.9763   -0.0748   -0.6337 C   0  0  0  0  0  0  0  0  0  0  0  0
   -5.7035   -0.1963    0.7255 C   0  0  0  0  0  0  0  0  0  0  0  0
    1.6590    3.3522   -0.0512 C   0  0  0  0  0  0  0  0  0  0  0  0
    3.0575    3.1648    0.5233 C   0  0  0  0  0  0  0  0  0  0  0  0
   -4.9283   -0.0430   -1.5548 C   0  0  0  0  0  0  0  0  0  0  0  0
   -4.3820   -0.2863    1.1662 C   0  0  0  0  0  0  0  0  0  0  0  0
    0.7606    2.1648    0.2932 C   0  0  0  0  0  0  0  0  0  0  0  0
   -2.5296   -0.1034   -2.0395 C   0  0  0  0  0  0  0  0  0  0  0  0
   -1.2066   -0.1915   -1.5999 C   0  0  0  0  0  0  0  0  0  0  0  0
    3.6276    1.8031    0.1398 C   0  0  0  0  0  0  0  0  0  0  0  0
   -1.9794   -0.3448    0.6801 C   0  0  0  0  0  0  0  0  0  0  0  0
   -3.5937   -0.1319   -1.1268 C   0  0  0  0  0  0  0  0  0  0  0  0
   -3.3157   -0.2553    0.2523 C   0  0  0  0  0  0  0  0  0  0  0  0
   -0.9134   -0.3095   -0.2351 C   0  0  0  0  0  0  0  0  0  0  0  0
    1.4118    0.8228   -0.1079 C   0  0  0  0  0  0  0  0  0  0  0  0
    0.5234   -0.3985    0.2705 C   0  0  0  0  0  0  0  0  0  0  0  0
    1.1855   -1.6798   -0.2340 C   0  0  0  0  0  0  0  0  0  0  0  0
    2.7364    0.7167    0.5519 N   0  0  0  0  0  0  0  0  0  0  0  0
    1.4191   -1.9386   -1.4092 O   0  0  0  0  0  0  0  0  0  0  0  0
    1.4684   -2.5069    0.8175 O   0  0  0  0  0  0  0  0  0  0  0  0
    3.8792   -2.8302   -0.3909 H   0  0  0  0  0  0  0  0  0  0  0  0
    3.9989   -3.1215    1.3395 H   0  0  0  0  0  0  0  0  0  0  0  0
    4.1272   -4.4863    0.2041 H   0  0  0  0  0  0  0  0  0  0  0  0
    1.7174   -4.1598   -0.4513 H   0  0  0  0  0  0  0  0  0  0  0  0
    1.8827   -4.4533    1.2775 H   0  0  0  0  0  0  0  0  0  0  0  0
   -7.0045   -0.0057   -0.9789 H   0  0  0  0  0  0  0  0  0  0  0  0
   -6.5185   -0.2223    1.4440 H   0  0  0  0  0  0  0  0  0  0  0  0
    1.2177    4.2792    0.3311 H   0  0  0  0  0  0  0  0  0  0  0  0
    1.7236    3.4532   -1.1417 H   0  0  0  0  0  0  0  0  0  0  0  0
    3.7177    3.9607    0.1610 H   0  0  0  0  0  0  0  0  0  0  0  0
    3.0182    3.2541    1.6163 H   0  0  0  0  0  0  0  0  0  0  0  0
   -5.1606    0.0509   -2.6132 H   0  0  0  0  0  0  0  0  0  0  0  0
   -4.1899   -0.3821    2.2324 H   0  0  0  0  0  0  0  0  0  0  0  0
    0.5482    2.1706    1.3704 H   0  0  0  0  0  0  0  0  0  0  0  0
   -0.1966    2.3034   -0.2208 H   0  0  0  0  0  0  0  0  0  0  0  0
   -2.7223   -0.0167   -3.1066 H   0  0  0  0  0  0  0  0  0  0  0  0
   -0.4081   -0.1776   -2.3404 H   0  0  0  0  0  0  0  0  0  0  0  0
    4.5995    1.6655    0.6261 H   0  0  0  0  0  0  0  0  0  0  0  0
    3.8079    1.7511   -0.9407 H   0  0  0  0  0  0  0  0  0  0  0  0
   -1.7700   -0.4417    1.7442 H   0  0  0  0  0  0  0  0  0  0  0  0
    1.5707    0.8183   -1.1951 H   0  0  0  0  0  0  0  0  0  0  0  0
    0.4899   -0.4521    1.3686 H   0  0  0  0  0  0  0  0  0  0  0  0
    2.6161    0.7583    1.5652 H   0  0  0  0  0  0  0  0  0  0  0  0
  1  2  1  0
  2 22  1  0
  3  4  2  0
  3  7  1  0
  4  8  1  0
  5  6  1  0
  5  9  1  0
  6 12  1  0
  7 14  2  0
  8 15  2  0
  9 17  1  0
 10 11  2  0
 10 14  1  0
 11 16  1  0
 12 20  1  0
 13 15  1  0
 13 16  2  0
 14 15  1  0
 16 18  1  0
 17 18  1  0
 17 20  1  0
 18 19  1  0
 19 21  2  0
 19 22  1  0
  1 23  1  0
  1 24  1  0
  1 25  1  0
  2 26  1  0
  2 27  1  0
  3 28  1  0
  4 29  1  0
  5 30  1  0
  5 31  1  0
  6 32  1  0
  6 33  1  0
  7 34  1  0
  8 35  1  0
  9 36  1  0
  9 37  1  0
 10 38  1  0
 11 39  1  0
 12 40  1  0
 12 41  1  0
 13 42  1  0
 17 43  1  0
 18 44  1  0
 20 45  1  0
M  END
