
     RDKit          3D

 48 50  0  0  0  0  0  0  0  0999 V2000
   -4.3344    2.4086   -1.1000 C   0  0  0  0  0  0  0  0  0  0  0  0
   -3.2032    2.0975   -2.0679 C   0  0  0  0  0  0  0  0  0  0  0  0
   -2.4814    0.7835   -1.7594 C   0  0  0  0  0  0  0  0  0  0  0  0
   -3.1955   -3.2086    0.8330 C   0  0  0  0  0  0  0  0  0  0  0  0
   -2.0146   -3.9644    0.2340 C   0  0  0  0  0  0  0  0  0  0  0  0
    5.3098    2.0943   -0.8507 C   0  0  0  0  0  0  0  0  0  0  0  0
    5.5523    1.1153    0.3069 C   0  0  0  0  0  0  0  0  0  0  0  0
    4.0057    1.6559   -1.5325 C   0  0  0  0  0  0  0  0  0  0  0  0
   -1.7195    0.8112   -0.4293 C   0  0  0  0  0  0  0  0  0  0  0  0
    3.6991    0.1200    1.8160 C   0  0  0  0  0  0  0  0  0  0  0  0
    2.3377   -0.1789    1.9181 C   0  0  0  0  0  0  0  0  0  0  0  0
   -2.7852   -1.7395    0.8289 C   0  0  0  0  0  0  0  0  0  0  0  0
   -0.9221   -2.9208    0.0741 C   0  0  0  0  0  0  0  0  0  0  0  0
    1.9196    0.7323   -0.3011 C   0  0  0  0  0  0  0  0  0  0  0  0
    4.1493    0.7305    0.6598 C   0  0  0  0  0  0  0  0  0  0  0  0
    3.2708    1.0351   -0.3847 C   0  0  0  0  0  0  0  0  0  0  0  0
    1.4449    0.1140    0.8641 C   0  0  0  0  0  0  0  0  0  0  0  0
   -0.8802   -0.4621   -0.1933 C   0  0  0  0  0  0  0  0  0  0  0  0
    0.0049   -0.2462    1.0532 C   0  0  0  0  0  0  0  0  0  0  0  0
   -1.6911   -1.6975   -0.1380 N   0  0  0  0  0  0  0  0  0  0  0  0
   -0.4149   -0.3486    2.2067 O   0  0  0  0  0  0  0  0  0  0  0  0
   -5.0488    1.5808   -1.0509 H   0  0  0  0  0  0  0  0  0  0  0  0
   -4.8740    3.3027   -1.4284 H   0  0  0  0  0  0  0  0  0  0  0  0
   -3.9581    2.6019   -0.0912 H   0  0  0  0  0  0  0  0  0  0  0  0
   -2.4862    2.9267   -2.0708 H   0  0  0  0  0  0  0  0  0  0  0  0
   -3.6192    2.0351   -3.0806 H   0  0  0  0  0  0  0  0  0  0  0  0
   -1.7719    0.5847   -2.5721 H   0  0  0  0  0  0  0  0  0  0  0  0
   -3.2082   -0.0368   -1.7664 H   0  0  0  0  0  0  0  0  0  0  0  0
   -4.0921   -3.3711    0.2241 H   0  0  0  0  0  0  0  0  0  0  0  0
   -3.4135   -3.5522    1.8498 H   0  0  0  0  0  0  0  0  0  0  0  0
   -1.6960   -4.7964    0.8696 H   0  0  0  0  0  0  0  0  0  0  0  0
   -2.2977   -4.3768   -0.7421 H   0  0  0  0  0  0  0  0  0  0  0  0
    6.1527    2.1347   -1.5476 H   0  0  0  0  0  0  0  0  0  0  0  0
    5.1790    3.1067   -0.4433 H   0  0  0  0  0  0  0  0  0  0  0  0
    6.0756    1.5996    1.1360 H   0  0  0  0  0  0  0  0  0  0  0  0
    6.1109    0.2355   -0.0285 H   0  0  0  0  0  0  0  0  0  0  0  0
    3.4720    2.5097   -1.9591 H   0  0  0  0  0  0  0  0  0  0  0  0
    4.1962    0.9058   -2.3069 H   0  0  0  0  0  0  0  0  0  0  0  0
   -2.4132    0.9616    0.4062 H   0  0  0  0  0  0  0  0  0  0  0  0
   -1.0562    1.6857   -0.4221 H   0  0  0  0  0  0  0  0  0  0  0  0
    4.3788   -0.1206    2.6274 H   0  0  0  0  0  0  0  0  0  0  0  0
    1.9672   -0.6515    2.8269 H   0  0  0  0  0  0  0  0  0  0  0  0
   -3.6278   -1.1066    0.5336 H   0  0  0  0  0  0  0  0  0  0  0  0
   -2.4801   -1.4540    1.8394 H   0  0  0  0  0  0  0  0  0  0  0  0
   -0.3148   -2.8821    0.9860 H   0  0  0  0  0  0  0  0  0  0  0  0
   -0.2694   -3.1538   -0.7731 H   0  0  0  0  0  0  0  0  0  0  0  0
    1.2687    0.9953   -1.1271 H   0  0  0  0  0  0  0  0  0  0  0  0
   -0.2261   -0.5961   -1.0621 H   0  0  0  0  0  0  0  0  0  0  0  0
  1  2  1  0
  2  3  1  0
  3  9  1  0
  4  5  1  0
  4 12  1  0
  5 13  1  0
  6  7  1  0
  6  8  1  0
  7 15  1  0
  8 16  1  0
  9 18  1  0
 10 11  1  0
 10 15  2  0
 11 17  2  0
 12 20  1  0
 13 20  1  0
 14 16  2  0
 14 17  1  0
 15 16  1  0
 17 19  1  0
 18 19  1  0
 18 20  1  0
 19 21  2  0
  1 22  1  0
  1 23  1  0
  1 24  1  0
  2 25  1  0
  2 26  1  0
  3 27  1  0
  3 28  1  0
  4 29  1  0
  4 30  1  0
  5 31  1  0
  5 32  1  0
  6 33  1  0
  6 34  1  0
  7 35  1  0
  7 36  1  0
  8 37  1  0
  8 38  1  0
  9 39  1  0
  9 40  1  0
 10 41  1  0
 11 42  1  0
 12 43  1  0
 12 44  1  0
 13 45  1  0
 13 46  1  0
 14 47  1  0
 18 48  1  0
M  END
