
     RDKit          3D

 30 31  0  0  0  0  0  0  0  0999 V2000
   -4.2313   -0.0631    1.1571 C   0  0  0  0  0  0  0  0  0  0  0  0
   -4.2070    0.0996   -0.2255 C   0  0  0  0  0  0  0  0  0  0  0  0
   -3.0449   -0.2932    1.8487 C   0  0  0  0  0  0  0  0  0  0  0  0
   -2.9958    0.0327   -0.9172 C   0  0  0  0  0  0  0  0  0  0  0  0
   -1.8329   -0.3603    1.1582 C   0  0  0  0  0  0  0  0  0  0  0  0
    0.2735   -1.5824   -0.8656 C   0  0  0  0  0  0  0  0  0  0  0  0
    0.5351    0.7937   -0.6037 C   0  0  0  0  0  0  0  0  0  0  0  0
    3.0413    0.9257   -0.9656 C   0  0  0  0  0  0  0  0  0  0  0  0
   -1.7915   -0.1979   -0.2352 C   0  0  0  0  0  0  0  0  0  0  0  0
   -0.4958   -0.2607   -1.0060 C   0  0  0  0  0  0  0  0  0  0  0  0
    3.5476    0.8902    0.4553 C   0  0  0  0  0  0  0  0  0  0  0  0
    1.7071   -1.1683   -1.0911 C   0  0  0  0  0  0  0  0  0  0  0  0
    3.8984   -0.1527    1.1207 N   0  0  0  0  0  0  0  0  0  0  0  0
    1.7766    0.2155   -1.0556 N   0  0  0  0  0  0  0  0  0  0  0  0
    3.6216    2.0629    1.0846 O   0  0  0  0  0  0  0  0  0  0  0  0
    2.6600   -1.9234   -1.1998 O   0  0  0  0  0  0  0  0  0  0  0  0
   -5.1742   -0.0122    1.6952 H   0  0  0  0  0  0  0  0  0  0  0  0
   -5.1324    0.2777   -0.7672 H   0  0  0  0  0  0  0  0  0  0  0  0
   -3.0624   -0.4224    2.9280 H   0  0  0  0  0  0  0  0  0  0  0  0
   -3.0043    0.1619   -1.9977 H   0  0  0  0  0  0  0  0  0  0  0  0
   -0.9226   -0.5433    1.7257 H   0  0  0  0  0  0  0  0  0  0  0  0
   -0.0402   -2.3098   -1.6195 H   0  0  0  0  0  0  0  0  0  0  0  0
    0.1956   -2.0273    0.1310 H   0  0  0  0  0  0  0  0  0  0  0  0
    0.5957    0.9482    0.4789 H   0  0  0  0  0  0  0  0  0  0  0  0
    0.3603    1.7536   -1.0994 H   0  0  0  0  0  0  0  0  0  0  0  0
    3.7812    0.4341   -1.6056 H   0  0  0  0  0  0  0  0  0  0  0  0
    2.9003    1.9551   -1.3073 H   0  0  0  0  0  0  0  0  0  0  0  0
   -0.7067   -0.1238   -2.0773 H   0  0  0  0  0  0  0  0  0  0  0  0
    3.7855   -0.9832    0.5118 H   0  0  0  0  0  0  0  0  0  0  0  0
    3.9622    1.8733    1.9765 H   0  0  0  0  0  0  0  0  0  0  0  0
  1  2  2  0
  1  3  1  0
  2  4  1  0
  3  5  2  0
  4  9  2  0
  5  9  1  0
  6 10  1  0
  6 12  1  0
  7 10  1  0
  7 14  1  0
  8 11  1  0
  8 14  1  0
  9 10  1  0
 11 13  2  3
 11 15  1  0
 12 14  1  0
 12 16  2  0
  1 17  1  0
  2 18  1  0
  3 19  1  0
  4 20  1  0
  5 21  1  0
  6 22  1  0
  6 23  1  0
  7 24  1  0
  7 25  1  0
  8 26  1  0
  8 27  1  0
 10 28  1  0
 13 29  1  0
 15 30  1  0
M  END
