
     RDKit          3D

 53 55  0  0  0  0  0  0  0  0999 V2000
   -2.9786   -1.2732   -1.6019 C   0  0  0  0  0  0  0  0  0  0  0  0
   -3.4361   -1.7696    0.6803 C   0  0  0  0  0  0  0  0  0  0  0  0
    6.0063    1.2542   -0.5506 C   0  0  0  0  0  0  0  0  0  0  0  0
    5.8958    0.4654    0.5921 C   0  0  0  0  0  0  0  0  0  0  0  0
    5.2216    0.9734   -1.6666 C   0  0  0  0  0  0  0  0  0  0  0  0
    4.9968   -0.6018    0.6218 C   0  0  0  0  0  0  0  0  0  0  0  0
    4.3215   -0.0931   -1.6382 C   0  0  0  0  0  0  0  0  0  0  0  0
   -3.6153    1.5307    1.3414 C   0  0  0  0  0  0  0  0  0  0  0  0
   -3.1196    2.0205   -0.9553 C   0  0  0  0  0  0  0  0  0  0  0  0
   -4.5568    2.5668    1.3622 C   0  0  0  0  0  0  0  0  0  0  0  0
   -4.0600    3.0577   -0.9400 C   0  0  0  0  0  0  0  0  0  0  0  0
    3.2099   -2.0306   -0.4615 C   0  0  0  0  0  0  0  0  0  0  0  0
    2.1405   -1.9802    0.6441 C   0  0  0  0  0  0  0  0  0  0  0  0
   -0.0053   -1.1100    1.6118 C   0  0  0  0  0  0  0  0  0  0  0  0
    0.5077   -0.6088   -0.7977 C   0  0  0  0  0  0  0  0  0  0  0  0
   -1.1286   -0.0653    1.5706 C   0  0  0  0  0  0  0  0  0  0  0  0
   -0.6264    0.4265   -0.7958 C   0  0  0  0  0  0  0  0  0  0  0  0
    4.1905   -0.8855   -0.4891 C   0  0  0  0  0  0  0  0  0  0  0  0
   -2.8619    1.2340    0.1867 C   0  0  0  0  0  0  0  0  0  0  0  0
   -4.7726    3.3278    0.2210 C   0  0  0  0  0  0  0  0  0  0  0  0
    1.1112   -0.8233    0.5941 C   0  0  0  0  0  0  0  0  0  0  0  0
   -1.8189    0.0741    0.1655 C   0  0  0  0  0  0  0  0  0  0  0  0
   -6.0441    4.7248    0.2444 Br  0  0  0  0  0  0  0  0  0  0  0  0
   -2.4299   -1.2369   -0.2432 N   0  0  0  0  0  0  0  0  0  0  0  0
    1.7343    0.3923    1.0224 O   0  0  0  0  0  0  0  0  0  0  0  0
   -3.8477   -0.6190   -1.7250 H   0  0  0  0  0  0  0  0  0  0  0  0
   -3.2992   -2.2923   -1.8510 H   0  0  0  0  0  0  0  0  0  0  0  0
   -2.2343   -1.0193   -2.3605 H   0  0  0  0  0  0  0  0  0  0  0  0
   -3.7496   -2.7706    0.3591 H   0  0  0  0  0  0  0  0  0  0  0  0
   -4.3352   -1.1472    0.7312 H   0  0  0  0  0  0  0  0  0  0  0  0
   -3.0441   -1.9089    1.6907 H   0  0  0  0  0  0  0  0  0  0  0  0
    6.7074    2.0844   -0.5725 H   0  0  0  0  0  0  0  0  0  0  0  0
    6.5108    0.6802    1.4624 H   0  0  0  0  0  0  0  0  0  0  0  0
    5.3128    1.5837   -2.5615 H   0  0  0  0  0  0  0  0  0  0  0  0
    4.9276   -1.2075    1.5228 H   0  0  0  0  0  0  0  0  0  0  0  0
    3.7217   -0.2989   -2.5222 H   0  0  0  0  0  0  0  0  0  0  0  0
   -3.4949    0.9540    2.2541 H   0  0  0  0  0  0  0  0  0  0  0  0
   -2.6010    1.8380   -1.8921 H   0  0  0  0  0  0  0  0  0  0  0  0
   -5.1138    2.7639    2.2744 H   0  0  0  0  0  0  0  0  0  0  0  0
   -4.2263    3.6415   -1.8413 H   0  0  0  0  0  0  0  0  0  0  0  0
    3.7930   -2.9527   -0.3345 H   0  0  0  0  0  0  0  0  0  0  0  0
    2.7206   -2.1348   -1.4375 H   0  0  0  0  0  0  0  0  0  0  0  0
    2.6399   -1.9663    1.6215 H   0  0  0  0  0  0  0  0  0  0  0  0
    1.5955   -2.9324    0.5886 H   0  0  0  0  0  0  0  0  0  0  0  0
    0.4138   -1.1107    2.6266 H   0  0  0  0  0  0  0  0  0  0  0  0
   -0.4289   -2.1075    1.4433 H   0  0  0  0  0  0  0  0  0  0  0  0
    1.2735   -0.2394   -1.4891 H   0  0  0  0  0  0  0  0  0  0  0  0
    0.1418   -1.5598   -1.2025 H   0  0  0  0  0  0  0  0  0  0  0  0
   -0.7165    0.9095    1.8690 H   0  0  0  0  0  0  0  0  0  0  0  0
   -1.8394   -0.3244    2.3615 H   0  0  0  0  0  0  0  0  0  0  0  0
   -0.2099    1.4035   -0.5106 H   0  0  0  0  0  0  0  0  0  0  0  0
   -0.9498    0.5507   -1.8339 H   0  0  0  0  0  0  0  0  0  0  0  0
    2.4504    0.6123    0.4009 H   0  0  0  0  0  0  0  0  0  0  0  0
  1 24  1  0
  2 24  1  0
  3  4  2  0
  3  5  1  0
  4  6  1  0
  5  7  2  0
  6 18  2  0
  7 18  1  0
  8 10  2  0
  8 19  1  0
  9 11  1  0
  9 19  2  0
 10 20  1  0
 11 20  2  0
 12 13  1  0
 12 18  1  0
 13 21  1  0
 14 16  1  0
 14 21  1  0
 15 17  1  0
 15 21  1  0
 16 22  1  0
 17 22  1  0
 19 22  1  0
 20 23  1  0
 21 25  1  0
 22 24  1  0
  1 26  1  0
  1 27  1  0
  1 28  1  0
  2 29  1  0
  2 30  1  0
  2 31  1  0
  3 32  1  0
  4 33  1  0
  5 34  1  0
  6 35  1  0
  7 36  1  0
  8 37  1  0
  9 38  1  0
 10 39  1  0
 11 40  1  0
 12 41  1  0
 12 42  1  0
 13 43  1  0
 13 44  1  0
 14 45  1  0
 14 46  1  0
 15 47  1  0
 15 48  1  0
 16 49  1  0
 16 50  1  0
 17 51  1  0
 17 52  1  0
 25 53  1  0
M  END
