
     RDKit          3D

 51 54  0  0  0  0  0  0  0  0999 V2000
    5.5095   -1.5343   -1.6097 C   0  0  0  0  0  0  0  0  0  0  0  0
    5.6372   -1.3482    0.8816 C   0  0  0  0  0  0  0  0  0  0  0  0
    1.0437    4.4650    1.3255 C   0  0  0  0  0  0  0  0  0  0  0  0
    0.2012    4.6048    2.4443 C   0  0  0  0  0  0  0  0  0  0  0  0
    0.8408    3.4373    0.3927 C   0  0  0  0  0  0  0  0  0  0  0  0
   -0.8613    3.7222    2.6435 C   0  0  0  0  0  0  0  0  0  0  0  0
    3.6094   -0.4394   -0.3135 C   0  0  0  0  0  0  0  0  0  0  0  0
   -5.4429   -2.9095   -1.3124 C   0  0  0  0  0  0  0  0  0  0  0  0
   -3.4942   -1.5048   -1.7446 C   0  0  0  0  0  0  0  0  0  0  0  0
    2.5177   -0.6788   -1.3541 C   0  0  0  0  0  0  0  0  0  0  0  0
   -6.4393   -3.3036   -0.4342 C   0  0  0  0  0  0  0  0  0  0  0  0
   -2.6059   -0.5411   -1.2847 C   0  0  0  0  0  0  0  0  0  0  0  0
    0.4420    0.2605   -0.1310 C   0  0  0  0  0  0  0  0  0  0  0  0
    4.6994   -1.5336   -0.3162 C   0  0  0  0  0  0  0  0  0  0  0  0
   -4.5169   -1.9420   -0.9027 C   0  0  0  0  0  0  0  0  0  0  0  0
    1.4232    0.3660   -1.2831 C   0  0  0  0  0  0  0  0  0  0  0  0
   -0.2056    2.5547    0.6080 C   0  0  0  0  0  0  0  0  0  0  0  0
   -1.0382    2.7147    1.7124 C   0  0  0  0  0  0  0  0  0  0  0  0
   -0.6371    1.3550   -0.1892 C   0  0  0  0  0  0  0  0  0  0  0  0
   -6.4539   -2.7094    0.8103 C   0  0  0  0  0  0  0  0  0  0  0  0
   -2.7560   -0.0340    0.0051 C   0  0  0  0  0  0  0  0  0  0  0  0
   -4.6163   -1.3908    0.3891 C   0  0  0  0  0  0  0  0  0  0  0  0
   -2.0902    1.6927    1.6584 C   0  0  0  0  0  0  0  0  0  0  0  0
   -7.6485   -3.1358    1.9661 Cl  0  0  0  0  0  0  0  0  0  0  0  0
   -5.5742   -1.7818    1.2288 N   0  0  0  0  0  0  0  0  0  0  0  0
   -3.7485   -0.4680    0.8062 N   0  0  0  0  0  0  0  0  0  0  0  0
   -1.8619    0.9458    0.5032 N   0  0  0  0  0  0  0  0  0  0  0  0
    1.3179    1.2200   -2.1625 O   0  0  0  0  0  0  0  0  0  0  0  0
   -2.9646    1.6387    2.5006 O   0  0  0  0  0  0  0  0  0  0  0  0
    6.3030   -2.2809   -1.5696 H   0  0  0  0  0  0  0  0  0  0  0  0
    5.9711   -0.5640   -1.7884 H   0  0  0  0  0  0  0  0  0  0  0  0
    4.8877   -1.7745   -2.4764 H   0  0  0  0  0  0  0  0  0  0  0  0
    5.0832   -1.3693    1.8222 H   0  0  0  0  0  0  0  0  0  0  0  0
    6.1686   -0.3917    0.8254 H   0  0  0  0  0  0  0  0  0  0  0  0
    6.3815   -2.1523    0.9204 H   0  0  0  0  0  0  0  0  0  0  0  0
    1.8602    5.1698    1.1809 H   0  0  0  0  0  0  0  0  0  0  0  0
    0.3760    5.4116    3.1575 H   0  0  0  0  0  0  0  0  0  0  0  0
    1.4893    3.3478   -0.4739 H   0  0  0  0  0  0  0  0  0  0  0  0
   -1.5315    3.8208    3.4898 H   0  0  0  0  0  0  0  0  0  0  0  0
    4.0664    0.5435   -0.4773 H   0  0  0  0  0  0  0  0  0  0  0  0
    3.1582   -0.3992    0.6880 H   0  0  0  0  0  0  0  0  0  0  0  0
   -5.3919   -3.3512   -2.3031 H   0  0  0  0  0  0  0  0  0  0  0  0
   -3.3875   -1.8994   -2.7531 H   0  0  0  0  0  0  0  0  0  0  0  0
    2.0592   -1.6652   -1.2260 H   0  0  0  0  0  0  0  0  0  0  0  0
    2.9209   -0.6488   -2.3706 H   0  0  0  0  0  0  0  0  0  0  0  0
   -7.1759   -4.0450   -0.7123 H   0  0  0  0  0  0  0  0  0  0  0  0
   -1.8315   -0.1978   -1.9607 H   0  0  0  0  0  0  0  0  0  0  0  0
    0.9909    0.2904    0.8175 H   0  0  0  0  0  0  0  0  0  0  0  0
   -0.0030   -0.7354   -0.2119 H   0  0  0  0  0  0  0  0  0  0  0  0
    4.2179   -2.5103   -0.2156 H   0  0  0  0  0  0  0  0  0  0  0  0
   -0.8989    1.6787   -1.2005 H   0  0  0  0  0  0  0  0  0  0  0  0
  1 14  1  0
  2 14  1  0
  3  4  2  0
  3  5  1  0
  4  6  1  0
  5 17  2  0
  6 18  2  0
  7 10  1  0
  7 14  1  0
  8 11  2  0
  8 15  1  0
  9 12  1  0
  9 15  2  0
 10 16  1  0
 11 20  1  0
 12 21  2  0
 13 16  1  0
 13 19  1  0
 15 22  1  0
 16 28  2  0
 17 18  1  0
 17 19  1  0
 18 23  1  0
 19 27  1  0
 20 24  1  0
 20 25  2  0
 21 26  1  0
 21 27  1  0
 22 25  1  0
 22 26  2  0
 23 27  1  0
 23 29  2  0
  1 30  1  0
  1 31  1  0
  1 32  1  0
  2 33  1  0
  2 34  1  0
  2 35  1  0
  3 36  1  0
  4 37  1  0
  5 38  1  0
  6 39  1  0
  7 40  1  0
  7 41  1  0
  8 42  1  0
  9 43  1  0
 10 44  1  0
 10 45  1  0
 11 46  1  0
 12 47  1  0
 13 48  1  0
 13 49  1  0
 14 50  1  0
 19 51  1  0
M  END
