
     RDKit          3D

 29 30  0  0  0  0  0  0  0  0999 V2000
   -3.2513   -1.3064    0.0250 C   0  0  0  0  0  0  0  0  0  0  0  0
   -2.7634    1.7571    0.4613 C   0  0  0  0  0  0  0  0  0  0  0  0
    1.2720   -1.5537    0.8150 C   0  0  0  0  0  0  0  0  0  0  0  0
    2.5574   -1.1760    1.2219 C   0  0  0  0  0  0  0  0  0  0  0  0
    3.3657    1.7023   -0.7615 C   0  0  0  0  0  0  0  0  0  0  0  0
    4.4864    1.5314    0.0184 C   0  0  0  0  0  0  0  0  0  0  0  0
   -0.8140   -1.2853   -0.5925 C   0  0  0  0  0  0  0  0  0  0  0  0
    1.1742    0.2710   -0.7965 C   0  0  0  0  0  0  0  0  0  0  0  0
   -1.9410   -0.5184    0.1425 C   0  0  0  0  0  0  0  0  0  0  0  0
    0.5791   -0.8503   -0.1849 C   0  0  0  0  0  0  0  0  0  0  0  0
    2.4640    0.6668   -0.4001 C   0  0  0  0  0  0  0  0  0  0  0  0
    3.1083   -0.0662    0.5885 C   0  0  0  0  0  0  0  0  0  0  0  0
   -2.0930    0.8283   -0.4368 N   0  0  0  0  0  0  0  0  0  0  0  0
    4.3395    0.4598    0.8409 O   0  0  0  0  0  0  0  0  0  0  0  0
   -3.5602   -1.4165   -1.0206 H   0  0  0  0  0  0  0  0  0  0  0  0
   -4.0658   -0.8197    0.5706 H   0  0  0  0  0  0  0  0  0  0  0  0
   -3.1354   -2.3108    0.4470 H   0  0  0  0  0  0  0  0  0  0  0  0
   -2.7946    2.7479   -0.0028 H   0  0  0  0  0  0  0  0  0  0  0  0
   -3.7943    1.4574    0.6706 H   0  0  0  0  0  0  0  0  0  0  0  0
   -2.2196    1.8579    1.4060 H   0  0  0  0  0  0  0  0  0  0  0  0
    0.8095   -2.4153    1.2932 H   0  0  0  0  0  0  0  0  0  0  0  0
    3.0994   -1.7128    1.9902 H   0  0  0  0  0  0  0  0  0  0  0  0
    3.2141    2.4765   -1.4994 H   0  0  0  0  0  0  0  0  0  0  0  0
    5.4254    2.0596    0.1059 H   0  0  0  0  0  0  0  0  0  0  0  0
   -0.9226   -1.1888   -1.6815 H   0  0  0  0  0  0  0  0  0  0  0  0
   -0.9066   -2.3612   -0.3910 H   0  0  0  0  0  0  0  0  0  0  0  0
    0.6388    0.8324   -1.5573 H   0  0  0  0  0  0  0  0  0  0  0  0
   -1.6722   -0.4427    1.2043 H   0  0  0  0  0  0  0  0  0  0  0  0
   -2.5998    0.7754   -1.3194 H   0  0  0  0  0  0  0  0  0  0  0  0
  1  9  1  0
  2 13  1  0
  3  4  2  0
  3 10  1  0
  4 12  1  0
  5  6  2  0
  5 11  1  0
  6 14  1  0
  7  9  1  0
  7 10  1  0
  8 10  2  0
  8 11  1  0
  9 13  1  0
 11 12  2  0
 12 14  1  0
  1 15  1  0
  1 16  1  0
  1 17  1  0
  2 18  1  0
  2 19  1  0
  2 20  1  0
  3 21  1  0
  4 22  1  0
  5 23  1  0
  6 24  1  0
  7 25  1  0
  7 26  1  0
  8 27  1  0
  9 28  1  0
 13 29  1  0
M  END
