
     RDKit          3D

 66 66  0  0  0  0  0  0  0  0999 V2000
   -9.9442    1.0996   -0.8601 C   0  0  0  0  0  0  0  0  0  0  0  0
    9.8246   -1.6820   -0.1150 C   0  0  0  0  0  0  0  0  0  0  0  0
   -5.8463   -2.7765    0.2412 C   0  0  0  0  0  0  0  0  0  0  0  0
    5.8194    2.4917   -0.3437 C   0  0  0  0  0  0  0  0  0  0  0  0
   -8.8232    0.4317   -1.6395 C   0  0  0  0  0  0  0  0  0  0  0  0
    8.3345   -1.5432   -0.3852 C   0  0  0  0  0  0  0  0  0  0  0  0
   -5.2283   -1.4025    0.4636 C   0  0  0  0  0  0  0  0  0  0  0  0
    5.8409    1.1341    0.3455 C   0  0  0  0  0  0  0  0  0  0  0  0
   -7.5409    0.3395   -0.8092 C   0  0  0  0  0  0  0  0  0  0  0  0
    8.0432   -0.3539   -1.3010 C   0  0  0  0  0  0  0  0  0  0  0  0
    0.5169    0.6026    2.9910 C   0  0  0  0  0  0  0  0  0  0  0  0
   -6.4306   -0.3763   -1.5887 C   0  0  0  0  0  0  0  0  0  0  0  0
    6.5721   -0.2519   -1.7185 C   0  0  0  0  0  0  0  0  0  0  0  0
   -0.8449    0.7485    2.7210 C   0  0  0  0  0  0  0  0  0  0  0  0
    1.4188    0.4015    1.9451 C   0  0  0  0  0  0  0  0  0  0  0  0
   -0.4084    0.4860    0.3544 C   0  0  0  0  0  0  0  0  0  0  0  0
   -4.4543    0.8085   -0.5181 C   0  0  0  0  0  0  0  0  0  0  0  0
    4.1308   -0.0327   -1.1704 C   0  0  0  0  0  0  0  0  0  0  0  0
   -5.1024   -0.5556   -0.8214 C   0  0  0  0  0  0  0  0  0  0  0  0
    5.5520   -0.0731   -0.5748 C   0  0  0  0  0  0  0  0  0  0  0  0
   -1.3163    0.6901    1.4026 C   0  0  0  0  0  0  0  0  0  0  0  0
    0.9614    0.3448    0.6214 C   0  0  0  0  0  0  0  0  0  0  0  0
   -2.7755    0.8690    1.1707 C   0  0  0  0  0  0  0  0  0  0  0  0
    1.8832    0.1539   -0.5319 C   0  0  0  0  0  0  0  0  0  0  0  0
   -3.5595    1.1776    2.0549 O   0  0  0  0  0  0  0  0  0  0  0  0
    1.5048    0.0808   -1.6898 O   0  0  0  0  0  0  0  0  0  0  0  0
   -3.0802    0.6317   -0.1279 O   0  0  0  0  0  0  0  0  0  0  0  0
    3.1708    0.0948   -0.1119 O   0  0  0  0  0  0  0  0  0  0  0  0
  -10.1828    0.5321    0.0448 H   0  0  0  0  0  0  0  0  0  0  0  0
  -10.8495    1.1571   -1.4725 H   0  0  0  0  0  0  0  0  0  0  0  0
   -9.6667    2.1162   -0.5655 H   0  0  0  0  0  0  0  0  0  0  0  0
   10.2174   -0.7864    0.3774 H   0  0  0  0  0  0  0  0  0  0  0  0
   10.3805   -1.8350   -1.0463 H   0  0  0  0  0  0  0  0  0  0  0  0
   10.0132   -2.5411    0.5373 H   0  0  0  0  0  0  0  0  0  0  0  0
   -5.3130   -3.3251   -0.5413 H   0  0  0  0  0  0  0  0  0  0  0  0
   -6.9009   -2.7037   -0.0396 H   0  0  0  0  0  0  0  0  0  0  0  0
   -5.7923   -3.3650    1.1627 H   0  0  0  0  0  0  0  0  0  0  0  0
    4.8376    2.7091   -0.7740 H   0  0  0  0  0  0  0  0  0  0  0  0
    6.5701    2.5542   -1.1373 H   0  0  0  0  0  0  0  0  0  0  0  0
    6.0411    3.2802    0.3838 H   0  0  0  0  0  0  0  0  0  0  0  0
   -8.6331    0.9998   -2.5573 H   0  0  0  0  0  0  0  0  0  0  0  0
   -9.1453   -0.5719   -1.9401 H   0  0  0  0  0  0  0  0  0  0  0  0
    7.8154   -1.4236    0.5716 H   0  0  0  0  0  0  0  0  0  0  0  0
    7.9656   -2.4668   -0.8448 H   0  0  0  0  0  0  0  0  0  0  0  0
   -5.8083   -0.8639    1.2223 H   0  0  0  0  0  0  0  0  0  0  0  0
   -4.2302   -1.5566    0.8907 H   0  0  0  0  0  0  0  0  0  0  0  0
    6.8152    1.0015    0.8296 H   0  0  0  0  0  0  0  0  0  0  0  0
    5.1103    1.1497    1.1644 H   0  0  0  0  0  0  0  0  0  0  0  0
   -7.7560   -0.1956    0.1232 H   0  0  0  0  0  0  0  0  0  0  0  0
   -7.2179    1.3521   -0.5374 H   0  0  0  0  0  0  0  0  0  0  0  0
    8.3677    0.5769   -0.8225 H   0  0  0  0  0  0  0  0  0  0  0  0
    8.6443   -0.4525   -2.2139 H   0  0  0  0  0  0  0  0  0  0  0  0
    0.8750    0.6504    4.0169 H   0  0  0  0  0  0  0  0  0  0  0  0
   -6.7935   -1.3596   -1.9164 H   0  0  0  0  0  0  0  0  0  0  0  0
   -6.2282    0.1849   -2.5122 H   0  0  0  0  0  0  0  0  0  0  0  0
    6.3128   -1.1588   -2.2817 H   0  0  0  0  0  0  0  0  0  0  0  0
    6.4753    0.5784   -2.4300 H   0  0  0  0  0  0  0  0  0  0  0  0
   -1.5386    0.9116    3.5442 H   0  0  0  0  0  0  0  0  0  0  0  0
    2.4760    0.2949    2.1768 H   0  0  0  0  0  0  0  0  0  0  0  0
   -0.7571    0.4457   -0.6762 H   0  0  0  0  0  0  0  0  0  0  0  0
   -5.0248    1.3691    0.2311 H   0  0  0  0  0  0  0  0  0  0  0  0
   -4.4341    1.4203   -1.4274 H   0  0  0  0  0  0  0  0  0  0  0  0
    3.9358   -0.9650   -1.7157 H   0  0  0  0  0  0  0  0  0  0  0  0
    4.0251    0.8092   -1.8652 H   0  0  0  0  0  0  0  0  0  0  0  0
   -4.4184   -1.1003   -1.4885 H   0  0  0  0  0  0  0  0  0  0  0  0
    5.5940   -0.9613    0.0704 H   0  0  0  0  0  0  0  0  0  0  0  0
  1  5  1  0
  2  6  1  0
  3  7  1  0
  4  8  1  0
  5  9  1  0
  6 10  1  0
  7 19  1  0
  8 20  1  0
  9 12  1  0
 10 13  1  0
 11 14  2  0
 11 15  1  0
 12 19  1  0
 13 20  1  0
 14 21  1  0
 15 22  2  0
 16 21  2  0
 16 22  1  0
 17 19  1  0
 17 27  1  0
 18 20  1  0
 18 28  1  0
 21 23  1  0
 22 24  1  0
 23 25  2  0
 23 27  1  0
 24 26  2  0
 24 28  1  0
  1 29  1  0
  1 30  1  0
  1 31  1  0
  2 32  1  0
  2 33  1  0
  2 34  1  0
  3 35  1  0
  3 36  1  0
  3 37  1  0
  4 38  1  0
  4 39  1  0
  4 40  1  0
  5 41  1  0
  5 42  1  0
  6 43  1  0
  6 44  1  0
  7 45  1  0
  7 46  1  0
  8 47  1  0
  8 48  1  0
  9 49  1  0
  9 50  1  0
 10 51  1  0
 10 52  1  0
 11 53  1  0
 12 54  1  0
 12 55  1  0
 13 56  1  0
 13 57  1  0
 14 58  1  0
 15 59  1  0
 16 60  1  0
 17 61  1  0
 17 62  1  0
 18 63  1  0
 18 64  1  0
 19 65  1  0
 20 66  1  0
M  END
