
     RDKit          3D

 20 20  0  0  0  0  0  0  0  0999 V2000
   -1.7299    1.4908    0.3689 C   0  0  0  0  0  0  0  0  0  0  0  0
    2.7012   -0.8956    0.4451 C   0  0  0  0  0  0  0  0  0  0  0  0
    1.4179   -1.2097   -0.0877 C   0  0  0  0  0  0  0  0  0  0  0  0
    3.0254    0.4289    0.2593 C   0  0  0  0  0  0  0  0  0  0  0  0
   -0.5513   -0.0414   -1.3180 C   0  0  0  0  0  0  0  0  0  0  0  0
   -1.7514    0.1484   -0.3614 C   0  0  0  0  0  0  0  0  0  0  0  0
    0.7953   -0.1103   -0.6478 C   0  0  0  0  0  0  0  0  0  0  0  0
   -1.8973   -0.9322    0.6230 N   0  0  0  0  0  0  0  0  0  0  0  0
    1.7922    1.2827   -0.5593 S   0  0  0  0  0  0  0  0  0  0  0  0
   -0.9096    1.5547    1.0915 H   0  0  0  0  0  0  0  0  0  0  0  0
   -2.6648    1.6460    0.9196 H   0  0  0  0  0  0  0  0  0  0  0  0
   -1.6256    2.3177   -0.3416 H   0  0  0  0  0  0  0  0  0  0  0  0
    3.3559   -1.6061    0.9346 H   0  0  0  0  0  0  0  0  0  0  0  0
    0.9735   -2.1973   -0.0585 H   0  0  0  0  0  0  0  0  0  0  0  0
    3.9317    0.9375    0.5580 H   0  0  0  0  0  0  0  0  0  0  0  0
   -0.5590    0.7630   -2.0653 H   0  0  0  0  0  0  0  0  0  0  0  0
   -0.6972   -0.9709   -1.8855 H   0  0  0  0  0  0  0  0  0  0  0  0
   -2.6558    0.1329   -0.9825 H   0  0  0  0  0  0  0  0  0  0  0  0
   -1.1063   -0.9046    1.2681 H   0  0  0  0  0  0  0  0  0  0  0  0
   -1.8452   -1.8342    0.1526 H   0  0  0  0  0  0  0  0  0  0  0  0
  1  6  1  0
  2  3  1  0
  2  4  2  0
  3  7  2  0
  4  9  1  0
  5  6  1  0
  5  7  1  0
  6  8  1  0
  7  9  1  0
  1 10  1  0
  1 11  1  0
  1 12  1  0
  2 13  1  0
  3 14  1  0
  4 15  1  0
  5 16  1  0
  5 17  1  0
  6 18  1  0
  8 19  1  0
  8 20  1  0
M  END
