
     RDKit          3D

 22 22  0  0  0  0  0  0  0  0999 V2000
    3.6359    0.2996   -0.0645 C   0  0  0  0  0  0  0  0  0  0  0  0
    1.4289    0.5846    1.1115 C   0  0  0  0  0  0  0  0  0  0  0  0
    1.5138   -0.7871   -0.8701 C   0  0  0  0  0  0  0  0  0  0  0  0
    0.0576    0.3416    1.2220 C   0  0  0  0  0  0  0  0  0  0  0  0
    0.1429   -1.0308   -0.7602 C   0  0  0  0  0  0  0  0  0  0  0  0
   -2.0791   -0.7298    0.3982 C   0  0  0  0  0  0  0  0  0  0  0  0
    2.1708    0.0107    0.0730 C   0  0  0  0  0  0  0  0  0  0  0  0
   -0.5961   -0.4763    0.2925 C   0  0  0  0  0  0  0  0  0  0  0  0
   -2.8796    0.1634   -0.5038 C   0  0  0  0  0  0  0  0  0  0  0  0
   -3.3295   -0.1870   -1.6549 N   0  0  0  0  0  0  0  0  0  0  0  0
   -3.1016    1.3954   -0.0297 O   0  0  0  0  0  0  0  0  0  0  0  0
    4.1577   -0.5418   -0.5325 H   0  0  0  0  0  0  0  0  0  0  0  0
    4.0958    0.4615    0.9160 H   0  0  0  0  0  0  0  0  0  0  0  0
    3.7851    1.1938   -0.6775 H   0  0  0  0  0  0  0  0  0  0  0  0
    1.9141    1.2275    1.8422 H   0  0  0  0  0  0  0  0  0  0  0  0
    2.0648   -1.2241   -1.6997 H   0  0  0  0  0  0  0  0  0  0  0  0
   -0.4988    0.8011    2.0360 H   0  0  0  0  0  0  0  0  0  0  0  0
   -0.3497   -1.6512   -1.5067 H   0  0  0  0  0  0  0  0  0  0  0  0
   -2.2942   -1.7761    0.1488 H   0  0  0  0  0  0  0  0  0  0  0  0
   -2.4217   -0.5885    1.4305 H   0  0  0  0  0  0  0  0  0  0  0  0
   -3.8419    0.5672   -2.1103 H   0  0  0  0  0  0  0  0  0  0  0  0
   -3.5752    1.9465   -0.6677 H   0  0  0  0  0  0  0  0  0  0  0  0
  1  7  1  0
  2  4  2  0
  2  7  1  0
  3  5  1  0
  3  7  2  0
  4  8  1  0
  5  8  2  0
  6  8  1  0
  6  9  1  0
  9 10  2  3
  9 11  1  0
  1 12  1  0
  1 13  1  0
  1 14  1  0
  2 15  1  0
  3 16  1  0
  4 17  1  0
  5 18  1  0
  6 19  1  0
  6 20  1  0
 10 21  1  0
 11 22  1  0
M  END
