
     RDKit          3D

 26 27  0  0  0  0  0  0  0  0999 V2000
    3.1318    1.2467   -0.1470 C   0  0  0  0  0  0  0  0  0  0  0  0
    3.8046    0.0405   -0.3011 C   0  0  0  0  0  0  0  0  0  0  0  0
    1.7332    1.2644   -0.1100 C   0  0  0  0  0  0  0  0  0  0  0  0
   -2.7124   -0.6622   -0.7495 C   0  0  0  0  0  0  0  0  0  0  0  0
   -2.4983    1.0610    0.8958 C   0  0  0  0  0  0  0  0  0  0  0  0
   -1.2095   -1.0068   -0.6395 C   0  0  0  0  0  0  0  0  0  0  0  0
   -0.9827    0.7883    1.0447 C   0  0  0  0  0  0  0  0  0  0  0  0
    1.6726   -1.1131   -0.3898 C   0  0  0  0  0  0  0  0  0  0  0  0
    3.0710   -1.1339   -0.4253 C   0  0  0  0  0  0  0  0  0  0  0  0
    0.9685    0.0877   -0.2164 C   0  0  0  0  0  0  0  0  0  0  0  0
    3.8954   -2.6335   -0.6239 Cl  0  0  0  0  0  0  0  0  0  0  0  0
   -3.2841   -0.1265    0.5032 N   0  0  0  0  0  0  0  0  0  0  0  0
   -0.4335    0.1661   -0.1846 N   0  0  0  0  0  0  0  0  0  0  0  0
    3.6878    2.1769   -0.0663 H   0  0  0  0  0  0  0  0  0  0  0  0
    4.8901    0.0230   -0.3323 H   0  0  0  0  0  0  0  0  0  0  0  0
    1.2352    2.2281   -0.0287 H   0  0  0  0  0  0  0  0  0  0  0  0
   -2.8688    0.0662   -1.5550 H   0  0  0  0  0  0  0  0  0  0  0  0
   -3.2683   -1.5642   -1.0281 H   0  0  0  0  0  0  0  0  0  0  0  0
   -2.6580    1.8540    0.1545 H   0  0  0  0  0  0  0  0  0  0  0  0
   -2.8896    1.4379    1.8473 H   0  0  0  0  0  0  0  0  0  0  0  0
   -0.8633   -1.3322   -1.6280 H   0  0  0  0  0  0  0  0  0  0  0  0
   -1.0866   -1.8391    0.0655 H   0  0  0  0  0  0  0  0  0  0  0  0
   -0.8139    0.1185    1.8982 H   0  0  0  0  0  0  0  0  0  0  0  0
   -0.4976    1.7437    1.2718 H   0  0  0  0  0  0  0  0  0  0  0  0
    1.1482   -2.0580   -0.4849 H   0  0  0  0  0  0  0  0  0  0  0  0
   -3.1719   -0.8337    1.2296 H   0  0  0  0  0  0  0  0  0  0  0  0
  1  2  2  0
  1  3  1  0
  2  9  1  0
  3 10  2  0
  4  6  1  0
  4 12  1  0
  5  7  1  0
  5 12  1  0
  6 13  1  0
  7 13  1  0
  8  9  2  0
  8 10  1  0
  9 11  1  0
 10 13  1  0
  1 14  1  0
  2 15  1  0
  3 16  1  0
  4 17  1  0
  4 18  1  0
  5 19  1  0
  5 20  1  0
  6 21  1  0
  6 22  1  0
  7 23  1  0
  7 24  1  0
  8 25  1  0
 12 26  1  0
M  END
