
     RDKit          3D

 28 28  0  0  0  0  0  0  0  0999 V2000
   -0.9519   -3.0186   -0.3479 C   0  0  0  0  0  0  0  0  0  0  0  0
    3.4104    2.6061    0.2375 C   0  0  0  0  0  0  0  0  0  0  0  0
   -1.6723    0.3269    0.7383 C   0  0  0  0  0  0  0  0  0  0  0  0
   -2.6294    0.3034   -0.4602 C   0  0  0  0  0  0  0  0  0  0  0  0
   -0.2271    0.1112    0.3266 C   0  0  0  0  0  0  0  0  0  0  0  0
    0.5958    1.1773   -0.0846 C   0  0  0  0  0  0  0  0  0  0  0  0
    1.6659   -1.4235   -0.0157 C   0  0  0  0  0  0  0  0  0  0  0  0
    2.4716   -0.3500   -0.4170 C   0  0  0  0  0  0  0  0  0  0  0  0
    0.3200   -1.1902    0.3274 C   0  0  0  0  0  0  0  0  0  0  0  0
    1.9415    0.9505   -0.4294 C   0  0  0  0  0  0  0  0  0  0  0  0
   -0.0416    2.7906   -0.1879 Cl  0  0  0  0  0  0  0  0  0  0  0  0
    2.3153   -3.0309    0.0929 Cl  0  0  0  0  0  0  0  0  0  0  0  0
    4.1174   -0.6038   -0.9164 Cl  0  0  0  0  0  0  0  0  0  0  0  0
   -4.0206    0.4920   -0.0542 N   0  0  0  0  0  0  0  0  0  0  0  0
   -0.4915   -2.2194    0.7463 O   0  0  0  0  0  0  0  0  0  0  0  0
    2.7210    2.0014   -0.8602 O   0  0  0  0  0  0  0  0  0  0  0  0
   -0.4648   -3.9971   -0.3111 H   0  0  0  0  0  0  0  0  0  0  0  0
   -0.7827   -2.5580   -1.3285 H   0  0  0  0  0  0  0  0  0  0  0  0
   -2.0280   -3.1719   -0.2222 H   0  0  0  0  0  0  0  0  0  0  0  0
    4.0898    1.8987    0.7239 H   0  0  0  0  0  0  0  0  0  0  0  0
    4.0087    3.4316   -0.1593 H   0  0  0  0  0  0  0  0  0  0  0  0
    2.7117    3.0173    0.9733 H   0  0  0  0  0  0  0  0  0  0  0  0
   -1.7693    1.2705    1.2893 H   0  0  0  0  0  0  0  0  0  0  0  0
   -1.9703   -0.4381    1.4669 H   0  0  0  0  0  0  0  0  0  0  0  0
   -2.5513   -0.6501   -0.9927 H   0  0  0  0  0  0  0  0  0  0  0  0
   -2.3677    1.0845   -1.1819 H   0  0  0  0  0  0  0  0  0  0  0  0
   -4.2766   -0.2075    0.6422 H   0  0  0  0  0  0  0  0  0  0  0  0
   -4.1240    1.3971    0.4047 H   0  0  0  0  0  0  0  0  0  0  0  0
  1 15  1  0
  2 16  1  0
  3  4  1  0
  3  5  1  0
  4 14  1  0
  5  6  2  0
  5  9  1  0
  6 10  1  0
  6 11  1  0
  7  8  1  0
  7  9  2  0
  7 12  1  0
  8 10  2  0
  8 13  1  0
  9 15  1  0
 10 16  1  0
  1 17  1  0
  1 18  1  0
  1 19  1  0
  2 20  1  0
  2 21  1  0
  2 22  1  0
  3 23  1  0
  3 24  1  0
  4 25  1  0
  4 26  1  0
 14 27  1  0
 14 28  1  0
M  END
