
     RDKit          3D

 26 27  0  0  0  0  0  0  0  0999 V2000
   -2.1192   -0.4087   -0.3483 C   0  0  0  0  0  0  0  0  0  0  0  0
   -2.8373    0.2265    0.8495 C   0  0  0  0  0  0  0  0  0  0  0  0
    0.6987    1.3246   -0.3071 C   0  0  0  0  0  0  0  0  0  0  0  0
    3.0595    1.0048    0.1632 C   0  0  0  0  0  0  0  0  0  0  0  0
   -0.3362   -2.1153    0.3638 C   0  0  0  0  0  0  0  0  0  0  0  0
   -0.7280   -0.8461   -0.0111 C   0  0  0  0  0  0  0  0  0  0  0  0
    2.0000    1.8189   -0.2125 C   0  0  0  0  0  0  0  0  0  0  0  0
    0.4517   -0.0339   -0.0156 C   0  0  0  0  0  0  0  0  0  0  0  0
    2.8322   -0.3389    0.4558 C   0  0  0  0  0  0  0  0  0  0  0  0
    1.5274   -0.8454    0.3627 C   0  0  0  0  0  0  0  0  0  0  0  0
   -4.1999    0.6506    0.5195 N   0  0  0  0  0  0  0  0  0  0  0  0
    1.0146   -2.1026    0.5849 N   0  0  0  0  0  0  0  0  0  0  0  0
    2.1926    3.1395   -0.5046 O   0  0  0  0  0  0  0  0  0  0  0  0
    3.9197   -1.0935    0.8231 O   0  0  0  0  0  0  0  0  0  0  0  0
   -2.0832    0.3035   -1.1826 H   0  0  0  0  0  0  0  0  0  0  0  0
   -2.6930   -1.2738   -0.7056 H   0  0  0  0  0  0  0  0  0  0  0  0
   -2.2783    1.0972    1.2109 H   0  0  0  0  0  0  0  0  0  0  0  0
   -2.8847   -0.4856    1.6815 H   0  0  0  0  0  0  0  0  0  0  0  0
   -0.1104    1.9856   -0.6021 H   0  0  0  0  0  0  0  0  0  0  0  0
    4.0700    1.3935    0.2357 H   0  0  0  0  0  0  0  0  0  0  0  0
   -0.9062   -3.0263    0.4923 H   0  0  0  0  0  0  0  0  0  0  0  0
   -4.7293   -0.1454    0.1663 H   0  0  0  0  0  0  0  0  0  0  0  0
   -4.1692    1.3301   -0.2401 H   0  0  0  0  0  0  0  0  0  0  0  0
    1.5515   -2.9081    0.8703 H   0  0  0  0  0  0  0  0  0  0  0  0
    3.1354    3.3443   -0.3905 H   0  0  0  0  0  0  0  0  0  0  0  0
    3.6215   -1.9954    1.0094 H   0  0  0  0  0  0  0  0  0  0  0  0
  1  2  1  0
  1  6  1  0
  2 11  1  0
  3  7  2  0
  3  8  1  0
  4  7  1  0
  4  9  2  0
  5  6  2  0
  5 12  1  0
  6  8  1  0
  7 13  1  0
  8 10  2  0
  9 10  1  0
  9 14  1  0
 10 12  1  0
  1 15  1  0
  1 16  1  0
  2 17  1  0
  2 18  1  0
  3 19  1  0
  4 20  1  0
  5 21  1  0
 11 22  1  0
 11 23  1  0
 12 24  1  0
 13 25  1  0
 14 26  1  0
M  END
