
     RDKit          3D

 24 25  0  0  0  0  0  0  0  0999 V2000
    3.4464   -0.1647   -1.6418 C   0  0  0  0  0  0  0  0  0  0  0  0
    2.0198    0.4718    0.3304 C   0  0  0  0  0  0  0  0  0  0  0  0
    1.0879   -0.9868   -1.3389 C   0  0  0  0  0  0  0  0  0  0  0  0
    0.8248    0.4013    1.0542 C   0  0  0  0  0  0  0  0  0  0  0  0
   -0.1035   -1.0519   -0.6094 C   0  0  0  0  0  0  0  0  0  0  0  0
   -2.1772    0.7860    2.0056 C   0  0  0  0  0  0  0  0  0  0  0  0
    2.1551   -0.2105   -0.8811 C   0  0  0  0  0  0  0  0  0  0  0  0
   -0.2689   -0.3491    0.5952 C   0  0  0  0  0  0  0  0  0  0  0  0
   -1.5597   -0.4420    1.3772 C   0  0  0  0  0  0  0  0  0  0  0  0
   -2.8553    0.1322    0.8414 C   0  0  0  0  0  0  0  0  0  0  0  0
   -2.9227    0.8613   -0.4274 N   0  0  0  0  0  0  0  0  0  0  0  0
    3.2705   -0.2759   -2.7170 H   0  0  0  0  0  0  0  0  0  0  0  0
    4.1074   -0.9697   -1.3062 H   0  0  0  0  0  0  0  0  0  0  0  0
    3.9531    0.7947   -1.4936 H   0  0  0  0  0  0  0  0  0  0  0  0
    2.8437    1.0629    0.7239 H   0  0  0  0  0  0  0  0  0  0  0  0
    1.1747   -1.5498   -2.2654 H   0  0  0  0  0  0  0  0  0  0  0  0
    0.7494    0.9403    1.9962 H   0  0  0  0  0  0  0  0  0  0  0  0
   -0.9191   -1.6659   -0.9858 H   0  0  0  0  0  0  0  0  0  0  0  0
   -2.6377    0.6779    2.9811 H   0  0  0  0  0  0  0  0  0  0  0  0
   -1.7163    1.7545    1.8508 H   0  0  0  0  0  0  0  0  0  0  0  0
   -1.6616   -1.3594    1.9558 H   0  0  0  0  0  0  0  0  0  0  0  0
   -3.7580   -0.4326    1.0675 H   0  0  0  0  0  0  0  0  0  0  0  0
   -2.0509    1.3669   -0.5958 H   0  0  0  0  0  0  0  0  0  0  0  0
   -3.0019    0.2085   -1.2063 H   0  0  0  0  0  0  0  0  0  0  0  0
  1  7  1  0
  2  4  2  0
  2  7  1  0
  3  5  1  0
  3  7  2  0
  4  8  1  0
  5  8  2  0
  6  9  1  0
  6 10  1  0
  8  9  1  0
  9 10  1  0
 10 11  1  0
  1 12  1  0
  1 13  1  0
  1 14  1  0
  2 15  1  0
  3 16  1  0
  4 17  1  0
  5 18  1  0
  6 19  1  0
  6 20  1  0
  9 21  1  0
 10 22  1  0
 11 23  1  0
 11 24  1  0
M  END
