
     RDKit          3D

 28 28  0  0  0  0  0  0  0  0999 V2000
   -1.3764   -1.8498   -1.6572 C   0  0  0  0  0  0  0  0  0  0  0  0
   -1.8021    2.9655   -1.4638 C   0  0  0  0  0  0  0  0  0  0  0  0
    3.1957   -1.5228    1.6333 C   0  0  0  0  0  0  0  0  0  0  0  0
    0.7918   -0.6128    0.4642 C   0  0  0  0  0  0  0  0  0  0  0  0
    0.5852    2.0693   -0.2532 C   0  0  0  0  0  0  0  0  0  0  0  0
   -1.5704   -1.0925   -0.3435 C   0  0  0  0  0  0  0  0  0  0  0  0
   -0.4126   -0.1347   -0.0999 C   0  0  0  0  0  0  0  0  0  0  0  0
    1.7629    1.5780    0.3228 C   0  0  0  0  0  0  0  0  0  0  0  0
   -0.5025    1.2204   -0.4736 C   0  0  0  0  0  0  0  0  0  0  0  0
    1.8823    0.2317    0.6861 C   0  0  0  0  0  0  0  0  0  0  0  0
    3.1928    2.8065    0.5855 Br  0  0  0  0  0  0  0  0  0  0  0  0
   -1.7267   -2.0546    0.7580 N   0  0  0  0  0  0  0  0  0  0  0  0
   -1.6847    1.6104   -1.0475 O   0  0  0  0  0  0  0  0  0  0  0  0
    3.0733   -0.1637    1.2344 O   0  0  0  0  0  0  0  0  0  0  0  0
   -1.2918   -1.1548   -2.5004 H   0  0  0  0  0  0  0  0  0  0  0  0
   -2.2267   -2.5113   -1.8581 H   0  0  0  0  0  0  0  0  0  0  0  0
   -0.4685   -2.4641   -1.6437 H   0  0  0  0  0  0  0  0  0  0  0  0
   -2.7950    3.0937   -1.9055 H   0  0  0  0  0  0  0  0  0  0  0  0
   -1.7273    3.6478   -0.6108 H   0  0  0  0  0  0  0  0  0  0  0  0
   -1.0621    3.2078   -2.2336 H   0  0  0  0  0  0  0  0  0  0  0  0
    4.1943   -1.6562    2.0606 H   0  0  0  0  0  0  0  0  0  0  0  0
    2.4660   -1.7746    2.4098 H   0  0  0  0  0  0  0  0  0  0  0  0
    3.1102   -2.1954    0.7736 H   0  0  0  0  0  0  0  0  0  0  0  0
    0.8428   -1.6678    0.7201 H   0  0  0  0  0  0  0  0  0  0  0  0
    0.5445    3.1189   -0.5235 H   0  0  0  0  0  0  0  0  0  0  0  0
   -2.5120   -0.5344   -0.3974 H   0  0  0  0  0  0  0  0  0  0  0  0
   -1.9363   -1.5299    1.6070 H   0  0  0  0  0  0  0  0  0  0  0  0
   -2.5467   -2.6308    0.5753 H   0  0  0  0  0  0  0  0  0  0  0  0
  1  6  1  0
  2 13  1  0
  3 14  1  0
  4  7  2  0
  4 10  1  0
  5  8  1  0
  5  9  2  0
  6  7  1  0
  6 12  1  0
  7  9  1  0
  8 10  2  0
  8 11  1  0
  9 13  1  0
 10 14  1  0
  1 15  1  0
  1 16  1  0
  1 17  1  0
  2 18  1  0
  2 19  1  0
  2 20  1  0
  3 21  1  0
  3 22  1  0
  3 23  1  0
  4 24  1  0
  5 25  1  0
  6 26  1  0
 12 27  1  0
 12 28  1  0
M  END
