
     RDKit          3D

 30 30  0  0  0  0  0  0  0  0999 V2000
   -3.7450    0.6874    0.1559 C   0  0  0  0  0  0  0  0  0  0  0  0
   -2.2669    0.8582   -0.1690 C   0  0  0  0  0  0  0  0  0  0  0  0
    2.7106   -0.6248   -0.6331 C   0  0  0  0  0  0  0  0  0  0  0  0
    2.2812    0.9834    1.2531 C   0  0  0  0  0  0  0  0  0  0  0  0
    0.7000    0.8855   -0.5534 C   0  0  0  0  0  0  0  0  0  0  0  0
    2.1940    0.7444   -0.2581 C   0  0  0  0  0  0  0  0  0  0  0  0
   -1.3475    0.1011    0.7998 C   0  0  0  0  0  0  0  0  0  0  0  0
    3.6970   -0.8433   -1.5065 C   0  0  0  0  0  0  0  0  0  0  0  0
    0.9342    0.5301    1.7595 C   0  0  0  0  0  0  0  0  0  0  0  0
   -1.4602   -1.4106    0.5938 C   0  0  0  0  0  0  0  0  0  0  0  0
    4.0775   -2.1085   -1.7763 F   0  0  0  0  0  0  0  0  0  0  0  0
    4.3079    0.1891   -2.1223 F   0  0  0  0  0  0  0  0  0  0  0  0
   -2.2856   -2.1599    1.2332 N   0  0  0  0  0  0  0  0  0  0  0  0
    0.0566    0.5204    0.6888 N   0  0  0  0  0  0  0  0  0  0  0  0
    0.6760    0.2562    2.9191 O   0  0  0  0  0  0  0  0  0  0  0  0
   -0.6597   -1.9453   -0.3390 O   0  0  0  0  0  0  0  0  0  0  0  0
   -3.9596    0.9935    1.1846 H   0  0  0  0  0  0  0  0  0  0  0  0
   -4.3499    1.3069   -0.5140 H   0  0  0  0  0  0  0  0  0  0  0  0
   -4.0667   -0.3502    0.0282 H   0  0  0  0  0  0  0  0  0  0  0  0
   -2.0929    0.5318   -1.2016 H   0  0  0  0  0  0  0  0  0  0  0  0
   -2.0333    1.9294   -0.1299 H   0  0  0  0  0  0  0  0  0  0  0  0
    2.2434   -1.4890   -0.1666 H   0  0  0  0  0  0  0  0  0  0  0  0
    3.0850    0.4175    1.7326 H   0  0  0  0  0  0  0  0  0  0  0  0
    2.3916    2.0492    1.4794 H   0  0  0  0  0  0  0  0  0  0  0  0
    0.3628    0.2495   -1.3771 H   0  0  0  0  0  0  0  0  0  0  0  0
    0.4387    1.9270   -0.7709 H   0  0  0  0  0  0  0  0  0  0  0  0
    2.7612    1.5107   -0.7992 H   0  0  0  0  0  0  0  0  0  0  0  0
   -1.6581    0.3031    1.8329 H   0  0  0  0  0  0  0  0  0  0  0  0
   -2.2162   -3.1390    0.9610 H   0  0  0  0  0  0  0  0  0  0  0  0
   -0.7761   -2.9037   -0.3993 H   0  0  0  0  0  0  0  0  0  0  0  0
  1  2  1  0
  2  7  1  0
  3  6  1  0
  3  8  2  3
  4  6  1  0
  4  9  1  0
  5  6  1  0
  5 14  1  0
  7 10  1  0
  7 14  1  0
  8 11  1  0
  8 12  1  0
  9 14  1  0
  9 15  2  0
 10 13  2  3
 10 16  1  0
  1 17  1  0
  1 18  1  0
  1 19  1  0
  2 20  1  0
  2 21  1  0
  3 22  1  0
  4 23  1  0
  4 24  1  0
  5 25  1  0
  5 26  1  0
  6 27  1  0
  7 28  1  0
 13 29  1  0
 16 30  1  0
M  END
