
     RDKit          3D

 28 28  0  0  0  0  0  0  0  0999 V2000
   -2.3282    2.8135    0.4579 C   0  0  0  0  0  0  0  0  0  0  0  0
    3.7700   -1.2972   -0.3275 C   0  0  0  0  0  0  0  0  0  0  0  0
   -1.3533   -0.9817   -1.0879 C   0  0  0  0  0  0  0  0  0  0  0  0
   -2.2374   -1.6649   -0.0330 C   0  0  0  0  0  0  0  0  0  0  0  0
    1.0447   -0.5133   -0.4550 C   0  0  0  0  0  0  0  0  0  0  0  0
    0.3745    2.0061    0.5487 C   0  0  0  0  0  0  0  0  0  0  0  0
   -0.2934   -0.0689   -0.5018 C   0  0  0  0  0  0  0  0  0  0  0  0
    1.6898    1.5474    0.5862 C   0  0  0  0  0  0  0  0  0  0  0  0
   -0.6268    1.2025    0.0054 C   0  0  0  0  0  0  0  0  0  0  0  0
    2.0450    0.2923    0.0893 C   0  0  0  0  0  0  0  0  0  0  0  0
    2.6264    2.3491    1.1174 F   0  0  0  0  0  0  0  0  0  0  0  0
   -1.5059   -2.6039    0.8216 N   0  0  0  0  0  0  0  0  0  0  0  0
   -1.9469    1.5559   -0.0868 O   0  0  0  0  0  0  0  0  0  0  0  0
    3.3693   -0.0351    0.1884 O   0  0  0  0  0  0  0  0  0  0  0  0
   -3.4084    2.9225    0.3213 H   0  0  0  0  0  0  0  0  0  0  0  0
   -1.8406    3.6370   -0.0739 H   0  0  0  0  0  0  0  0  0  0  0  0
   -2.1225    2.8574    1.5325 H   0  0  0  0  0  0  0  0  0  0  0  0
    3.2855   -2.1163    0.2142 H   0  0  0  0  0  0  0  0  0  0  0  0
    3.5754   -1.3642   -1.4030 H   0  0  0  0  0  0  0  0  0  0  0  0
    4.8498   -1.3924   -0.1781 H   0  0  0  0  0  0  0  0  0  0  0  0
   -0.8795   -1.7446   -1.7197 H   0  0  0  0  0  0  0  0  0  0  0  0
   -1.9856   -0.3989   -1.7700 H   0  0  0  0  0  0  0  0  0  0  0  0
   -2.7324   -0.9247    0.6043 H   0  0  0  0  0  0  0  0  0  0  0  0
   -3.0295   -2.2216   -0.5459 H   0  0  0  0  0  0  0  0  0  0  0  0
    1.2755   -1.4973   -0.8513 H   0  0  0  0  0  0  0  0  0  0  0  0
    0.1799    2.9927    0.9512 H   0  0  0  0  0  0  0  0  0  0  0  0
   -0.9909   -3.2645    0.2427 H   0  0  0  0  0  0  0  0  0  0  0  0
   -0.8046   -2.0866    1.3527 H   0  0  0  0  0  0  0  0  0  0  0  0
  1 13  1  0
  2 14  1  0
  3  4  1  0
  3  7  1  0
  4 12  1  0
  5  7  2  0
  5 10  1  0
  6  8  1  0
  6  9  2  0
  7  9  1  0
  8 10  2  0
  8 11  1  0
  9 13  1  0
 10 14  1  0
  1 15  1  0
  1 16  1  0
  1 17  1  0
  2 18  1  0
  2 19  1  0
  2 20  1  0
  3 21  1  0
  3 22  1  0
  4 23  1  0
  4 24  1  0
  5 25  1  0
  6 26  1  0
 12 27  1  0
 12 28  1  0
M  END
