
     RDKit          3D

 26 26  0  0  0  0  0  0  0  0999 V2000
    2.9595   -0.3586   -1.0085 C   0  0  0  0  0  0  0  0  0  0  0  0
    3.1170    0.2508    1.4135 C   0  0  0  0  0  0  0  0  0  0  0  0
   -4.0369   -0.5343    0.2966 C   0  0  0  0  0  0  0  0  0  0  0  0
   -3.3847   -1.1182   -0.7881 C   0  0  0  0  0  0  0  0  0  0  0  0
   -3.3783    0.4143    1.0764 C   0  0  0  0  0  0  0  0  0  0  0  0
   -2.0729   -0.7520   -1.0963 C   0  0  0  0  0  0  0  0  0  0  0  0
   -2.0675    0.7819    0.7693 C   0  0  0  0  0  0  0  0  0  0  0  0
    0.0188    0.6065   -0.6485 C   0  0  0  0  0  0  0  0  0  0  0  0
    2.3365    0.4708    0.1161 C   0  0  0  0  0  0  0  0  0  0  0  0
   -1.4020    0.2066   -0.3236 C   0  0  0  0  0  0  0  0  0  0  0  0
    0.9403    0.1094    0.3701 N   0  0  0  0  0  0  0  0  0  0  0  0
    2.4767   -0.1619   -1.9706 H   0  0  0  0  0  0  0  0  0  0  0  0
    2.8844   -1.4325   -0.8040 H   0  0  0  0  0  0  0  0  0  0  0  0
    4.0216   -0.1148   -1.1228 H   0  0  0  0  0  0  0  0  0  0  0  0
    4.1653    0.5432    1.2883 H   0  0  0  0  0  0  0  0  0  0  0  0
    3.0963   -0.7999    1.7248 H   0  0  0  0  0  0  0  0  0  0  0  0
    2.7015    0.8540    2.2288 H   0  0  0  0  0  0  0  0  0  0  0  0
   -5.0571   -0.8213    0.5368 H   0  0  0  0  0  0  0  0  0  0  0  0
   -3.8974   -1.8609   -1.3935 H   0  0  0  0  0  0  0  0  0  0  0  0
   -3.8822    0.8656    1.9268 H   0  0  0  0  0  0  0  0  0  0  0  0
   -1.5780   -1.2201   -1.9438 H   0  0  0  0  0  0  0  0  0  0  0  0
   -1.5553    1.5144    1.3899 H   0  0  0  0  0  0  0  0  0  0  0  0
    0.0635    1.7011   -0.7071 H   0  0  0  0  0  0  0  0  0  0  0  0
    0.2823    0.2222   -1.6401 H   0  0  0  0  0  0  0  0  0  0  0  0
    2.4077    1.5359   -0.1368 H   0  0  0  0  0  0  0  0  0  0  0  0
    0.8408   -0.9021    0.4464 H   0  0  0  0  0  0  0  0  0  0  0  0
  1  9  1  0
  2  9  1  0
  3  4  2  0
  3  5  1  0
  4  6  1  0
  5  7  2  0
  6 10  2  0
  7 10  1  0
  8 10  1  0
  8 11  1  0
  9 11  1  0
  1 12  1  0
  1 13  1  0
  1 14  1  0
  2 15  1  0
  2 16  1  0
  2 17  1  0
  3 18  1  0
  4 19  1  0
  5 20  1  0
  6 21  1  0
  7 22  1  0
  8 23  1  0
  8 24  1  0
  9 25  1  0
 11 26  1  0
M  END
