
     RDKit          3D

 27 27  0  0  0  0  0  0  0  0999 V2000
   -2.7132    1.0483   -0.8617 C   0  0  0  0  0  0  0  0  0  0  0  0
   -2.9260   -0.0094    1.2766 C   0  0  0  0  0  0  0  0  0  0  0  0
    2.0323   -1.3592   -0.3050 C   0  0  0  0  0  0  0  0  0  0  0  0
    1.2515    0.9220   -0.1620 C   0  0  0  0  0  0  0  0  0  0  0  0
    3.2049   -0.9974    0.3607 C   0  0  0  0  0  0  0  0  0  0  0  0
    2.4233    1.2847    0.5059 C   0  0  0  0  0  0  0  0  0  0  0  0
   -0.2267   -0.7932   -1.2943 C   0  0  0  0  0  0  0  0  0  0  0  0
   -1.4417   -0.9706   -0.3618 C   0  0  0  0  0  0  0  0  0  0  0  0
    1.0441   -0.4016   -0.5756 C   0  0  0  0  0  0  0  0  0  0  0  0
    3.3914    0.3196    0.7606 C   0  0  0  0  0  0  0  0  0  0  0  0
   -2.0104    0.2849    0.1713 N   0  0  0  0  0  0  0  0  0  0  0  0
    4.5498    0.6296    1.4103 O   0  0  0  0  0  0  0  0  0  0  0  0
   -3.5305    0.4761   -1.3153 H   0  0  0  0  0  0  0  0  0  0  0  0
   -3.1342    1.9676   -0.4382 H   0  0  0  0  0  0  0  0  0  0  0  0
   -2.0314    1.3676   -1.6554 H   0  0  0  0  0  0  0  0  0  0  0  0
   -3.3253    0.9173    1.7041 H   0  0  0  0  0  0  0  0  0  0  0  0
   -3.7683   -0.6354    0.9600 H   0  0  0  0  0  0  0  0  0  0  0  0
   -2.3986   -0.5228    2.0882 H   0  0  0  0  0  0  0  0  0  0  0  0
    1.8973   -2.3940   -0.6099 H   0  0  0  0  0  0  0  0  0  0  0  0
    0.4901    1.6760   -0.3503 H   0  0  0  0  0  0  0  0  0  0  0  0
    3.9684   -1.7413    0.5680 H   0  0  0  0  0  0  0  0  0  0  0  0
    2.5559    2.3149    0.8189 H   0  0  0  0  0  0  0  0  0  0  0  0
   -0.0563   -1.7472   -1.8111 H   0  0  0  0  0  0  0  0  0  0  0  0
   -0.4286   -0.0727   -2.0949 H   0  0  0  0  0  0  0  0  0  0  0  0
   -1.1255   -1.6098    0.4738 H   0  0  0  0  0  0  0  0  0  0  0  0
   -2.2206   -1.5275   -0.8997 H   0  0  0  0  0  0  0  0  0  0  0  0
    4.5283    1.5735    1.6369 H   0  0  0  0  0  0  0  0  0  0  0  0
  1 11  1  0
  2 11  1  0
  3  5  2  0
  3  9  1  0
  4  6  1  0
  4  9  2  0
  5 10  1  0
  6 10  2  0
  7  8  1  0
  7  9  1  0
  8 11  1  0
 10 12  1  0
  1 13  1  0
  1 14  1  0
  1 15  1  0
  2 16  1  0
  2 17  1  0
  2 18  1  0
  3 19  1  0
  4 20  1  0
  5 21  1  0
  6 22  1  0
  7 23  1  0
  7 24  1  0
  8 25  1  0
  8 26  1  0
 12 27  1  0
M  END
