
     RDKit          3D

 35 35  0  0  0  0  0  0  0  0999 V2000
    3.6262   -0.7499   -1.1338 C   0  0  0  0  0  0  0  0  0  0  0  0
   -3.7392    1.9914    0.4851 C   0  0  0  0  0  0  0  0  0  0  0  0
    1.4196    1.2442    1.1161 C   0  0  0  0  0  0  0  0  0  0  0  0
    3.0364   -1.2242    0.1849 C   0  0  0  0  0  0  0  0  0  0  0  0
   -2.8092    1.6638   -0.4206 C   0  0  0  0  0  0  0  0  0  0  0  0
    1.5056   -1.1403    0.2422 C   0  0  0  0  0  0  0  0  0  0  0  0
   -1.3249    1.6404   -0.1368 C   0  0  0  0  0  0  0  0  0  0  0  0
    0.8877    0.2733    0.0496 C   0  0  0  0  0  0  0  0  0  0  0  0
   -1.0473   -0.5329   -1.3028 C   0  0  0  0  0  0  0  0  0  0  0  0
   -1.2974   -0.5221    1.0927 C   0  0  0  0  0  0  0  0  0  0  0  0
   -2.0714   -2.2334   -0.1934 C   0  0  0  0  0  0  0  0  0  0  0  0
   -0.6874    0.2258   -0.0564 C   0  0  0  0  0  0  0  0  0  0  0  0
   -1.6734   -1.6470   -1.3698 N   0  0  0  0  0  0  0  0  0  0  0  0
   -1.9193   -1.6396    1.0351 N   0  0  0  0  0  0  0  0  0  0  0  0
   -0.6561    0.0168   -2.4612 O   0  0  0  0  0  0  0  0  0  0  0  0
   -1.1685    0.0356    2.3029 O   0  0  0  0  0  0  0  0  0  0  0  0
   -2.5887   -3.3415   -0.2434 O   0  0  0  0  0  0  0  0  0  0  0  0
    3.1656   -1.2690   -1.9803 H   0  0  0  0  0  0  0  0  0  0  0  0
    4.7019   -0.9517   -1.1577 H   0  0  0  0  0  0  0  0  0  0  0  0
    3.4902    0.3267   -1.2706 H   0  0  0  0  0  0  0  0  0  0  0  0
   -3.4787    2.2544    1.5061 H   0  0  0  0  0  0  0  0  0  0  0  0
   -4.7927    2.0036    0.2205 H   0  0  0  0  0  0  0  0  0  0  0  0
    1.0168    2.2523    0.9882 H   0  0  0  0  0  0  0  0  0  0  0  0
    2.5068    1.3483    1.0427 H   0  0  0  0  0  0  0  0  0  0  0  0
    1.1916    0.9033    2.1296 H   0  0  0  0  0  0  0  0  0  0  0  0
    3.3240   -2.2724    0.3339 H   0  0  0  0  0  0  0  0  0  0  0  0
    3.4861   -0.6666    1.0130 H   0  0  0  0  0  0  0  0  0  0  0  0
   -3.1287    1.4223   -1.4335 H   0  0  0  0  0  0  0  0  0  0  0  0
    1.1118   -1.8215   -0.5211 H   0  0  0  0  0  0  0  0  0  0  0  0
    1.1900   -1.5463    1.2112 H   0  0  0  0  0  0  0  0  0  0  0  0
   -0.8320    2.2260   -0.9242 H   0  0  0  0  0  0  0  0  0  0  0  0
   -1.1491    2.1865    0.7985 H   0  0  0  0  0  0  0  0  0  0  0  0
    1.2535    0.6603   -0.9107 H   0  0  0  0  0  0  0  0  0  0  0  0
   -0.9392   -0.5718   -3.1841 H   0  0  0  0  0  0  0  0  0  0  0  0
   -1.6106   -0.5447    2.9482 H   0  0  0  0  0  0  0  0  0  0  0  0
  1  4  1  0
  2  5  2  3
  3  8  1  0
  4  6  1  0
  5  7  1  0
  6  8  1  0
  7 12  1  0
  8 12  1  0
  9 12  1  0
  9 13  2  0
  9 15  1  0
 10 12  1  0
 10 14  2  0
 10 16  1  0
 11 13  1  0
 11 14  1  0
 11 17  2  0
  1 18  1  0
  1 19  1  0
  1 20  1  0
  2 21  1  0
  2 22  1  0
  3 23  1  0
  3 24  1  0
  3 25  1  0
  4 26  1  0
  4 27  1  0
  5 28  1  0
  6 29  1  0
  6 30  1  0
  7 31  1  0
  7 32  1  0
  8 33  1  0
 15 34  1  0
 16 35  1  0
M  END
