
     RDKit          3D

 28 28  0  0  0  0  0  0  0  0999 V2000
   -1.2769    0.0074   -1.6879 C   0  0  0  0  0  0  0  0  0  0  0  0
   -3.8827    0.3375    0.1495 C   0  0  0  0  0  0  0  0  0  0  0  0
    1.4236    0.8538    1.0127 C   0  0  0  0  0  0  0  0  0  0  0  0
    1.9319   -0.9640   -0.4924 C   0  0  0  0  0  0  0  0  0  0  0  0
    2.7066    1.3741    0.8224 C   0  0  0  0  0  0  0  0  0  0  0  0
    3.2137   -0.4446   -0.6844 C   0  0  0  0  0  0  0  0  0  0  0  0
   -1.4932   -0.0328   -0.1682 C   0  0  0  0  0  0  0  0  0  0  0  0
    1.0177   -0.3219    0.3573 C   0  0  0  0  0  0  0  0  0  0  0  0
    3.5910    0.7187   -0.0269 C   0  0  0  0  0  0  0  0  0  0  0  0
   -0.3870   -0.8531    0.5694 C   0  0  0  0  0  0  0  0  0  0  0  0
   -2.8129   -0.6548    0.1247 N   0  0  0  0  0  0  0  0  0  0  0  0
    4.8518    1.1912   -0.2422 O   0  0  0  0  0  0  0  0  0  0  0  0
   -0.4835   -2.2330    0.1943 O   0  0  0  0  0  0  0  0  0  0  0  0
   -2.0838    0.5522   -2.1895 H   0  0  0  0  0  0  0  0  0  0  0  0
   -1.2338   -0.9989   -2.1189 H   0  0  0  0  0  0  0  0  0  0  0  0
   -0.3443    0.5225   -1.9392 H   0  0  0  0  0  0  0  0  0  0  0  0
   -3.7167    1.0754    0.9410 H   0  0  0  0  0  0  0  0  0  0  0  0
   -3.9839    0.8553   -0.8090 H   0  0  0  0  0  0  0  0  0  0  0  0
   -4.8332   -0.1616    0.3623 H   0  0  0  0  0  0  0  0  0  0  0  0
    0.7390    1.3707    1.6823 H   0  0  0  0  0  0  0  0  0  0  0  0
    1.6487   -1.8781   -1.0108 H   0  0  0  0  0  0  0  0  0  0  0  0
    2.9941    2.2822    1.3423 H   0  0  0  0  0  0  0  0  0  0  0  0
    3.9137   -0.9502   -1.3431 H   0  0  0  0  0  0  0  0  0  0  0  0
   -1.4651    0.9946    0.2177 H   0  0  0  0  0  0  0  0  0  0  0  0
   -0.5842   -0.8257    1.6499 H   0  0  0  0  0  0  0  0  0  0  0  0
   -3.0255   -1.3368   -0.6062 H   0  0  0  0  0  0  0  0  0  0  0  0
    4.9793    1.9876    0.2980 H   0  0  0  0  0  0  0  0  0  0  0  0
   -1.4043   -2.4677    0.4135 H   0  0  0  0  0  0  0  0  0  0  0  0
  1  7  1  0
  2 11  1  0
  3  5  2  0
  3  8  1  0
  4  6  1  0
  4  8  2  0
  5  9  1  0
  6  9  2  0
  7 10  1  0
  7 11  1  0
  8 10  1  0
  9 12  1  0
 10 13  1  0
  1 14  1  0
  1 15  1  0
  1 16  1  0
  2 17  1  0
  2 18  1  0
  2 19  1  0
  3 20  1  0
  4 21  1  0
  5 22  1  0
  6 23  1  0
  7 24  1  0
 10 25  1  0
 11 26  1  0
 12 27  1  0
 13 28  1  0
M  END
