
     RDKit          3D

 28 30  0  0  0  0  0  0  0  0999 V2000
   -2.4876    1.0627   -1.2162 C   0  0  0  0  0  0  0  0  0  0  0  0
    1.0314   -1.2262    0.4697 C   0  0  0  0  0  0  0  0  0  0  0  0
    2.4103   -1.2085    0.2342 C   0  0  0  0  0  0  0  0  0  0  0  0
    0.9251    1.1961    0.2578 C   0  0  0  0  0  0  0  0  0  0  0  0
    4.3575    1.6574   -0.3551 C   0  0  0  0  0  0  0  0  0  0  0  0
   -2.0249   -0.2372   -0.5864 C   0  0  0  0  0  0  0  0  0  0  0  0
    0.2747   -0.0295    0.4866 C   0  0  0  0  0  0  0  0  0  0  0  0
    3.0074    0.0126    0.0162 C   0  0  0  0  0  0  0  0  0  0  0  0
    2.2852    1.1814    0.0279 C   0  0  0  0  0  0  0  0  0  0  0  0
   -1.2225   -0.0485    0.7114 C   0  0  0  0  0  0  0  0  0  0  0  0
   -2.7837   -1.6563    1.0352 C   0  0  0  0  0  0  0  0  0  0  0  0
   -3.3734   -2.6330    1.6061 N   0  0  0  0  0  0  0  0  0  0  0  0
   -3.1488   -1.0127   -0.1011 N   0  0  0  0  0  0  0  0  0  0  0  0
    4.3282    0.2207   -0.2294 O   0  0  0  0  0  0  0  0  0  0  0  0
    3.0601    2.2732   -0.2104 O   0  0  0  0  0  0  0  0  0  0  0  0
   -1.6190   -1.1667    1.5329 O   0  0  0  0  0  0  0  0  0  0  0  0
   -1.6352    1.6620   -1.5505 H   0  0  0  0  0  0  0  0  0  0  0  0
   -3.0736    1.6643   -0.5125 H   0  0  0  0  0  0  0  0  0  0  0  0
   -3.1249    0.8646   -2.0848 H   0  0  0  0  0  0  0  0  0  0  0  0
    0.5430   -2.1833    0.6519 H   0  0  0  0  0  0  0  0  0  0  0  0
    2.9903   -2.1245    0.2281 H   0  0  0  0  0  0  0  0  0  0  0  0
    0.3875    2.1387    0.2639 H   0  0  0  0  0  0  0  0  0  0  0  0
    4.7584    1.9145   -1.3423 H   0  0  0  0  0  0  0  0  0  0  0  0
    5.0262    2.0637    0.4126 H   0  0  0  0  0  0  0  0  0  0  0  0
   -1.4709   -0.8350   -1.3210 H   0  0  0  0  0  0  0  0  0  0  0  0
   -1.5241    0.8548    1.2577 H   0  0  0  0  0  0  0  0  0  0  0  0
   -4.2304   -2.8480    1.0959 H   0  0  0  0  0  0  0  0  0  0  0  0
   -3.6659   -1.5573   -0.7784 H   0  0  0  0  0  0  0  0  0  0  0  0
  1  6  1  0
  2  3  2  0
  2  7  1  0
  3  8  1  0
  4  7  2  0
  4  9  1  0
  5 14  1  0
  5 15  1  0
  6 10  1  0
  6 13  1  0
  7 10  1  0
  8  9  2  0
  8 14  1  0
  9 15  1  0
 10 16  1  0
 11 12  2  3
 11 13  1  0
 11 16  1  0
  1 17  1  0
  1 18  1  0
  1 19  1  0
  2 20  1  0
  3 21  1  0
  4 22  1  0
  5 23  1  0
  5 24  1  0
  6 25  1  0
 10 26  1  0
 12 27  1  0
 13 28  1  0
M  END
