
     RDKit          3D

 28 29  0  0  0  0  0  0  0  0999 V2000
    2.8113   -0.0052   -0.5713 C   0  0  0  0  0  0  0  0  0  0  0  0
    2.1614   -0.4475   -1.7290 C   0  0  0  0  0  0  0  0  0  0  0  0
   -2.5561    0.4714   -0.2587 C   0  0  0  0  0  0  0  0  0  0  0  0
   -3.1525   -0.6449    0.6114 C   0  0  0  0  0  0  0  0  0  0  0  0
    0.6848    0.5571    0.4646 C   0  0  0  0  0  0  0  0  0  0  0  0
   -1.4058   -0.4862   -2.3471 C   0  0  0  0  0  0  0  0  0  0  0  0
    2.0853    0.4875    0.5174 C   0  0  0  0  0  0  0  0  0  0  0  0
   -1.3713    0.0431   -1.0707 C   0  0  0  0  0  0  0  0  0  0  0  0
    0.0083    0.1160   -0.6916 C   0  0  0  0  0  0  0  0  0  0  0  0
    0.7637   -0.3762   -1.7563 C   0  0  0  0  0  0  0  0  0  0  0  0
    2.7951    0.9324    1.7275 C   0  0  0  0  0  0  0  0  0  0  0  0
   -2.3492   -0.9516    1.7957 N   0  0  0  0  0  0  0  0  0  0  0  0
    3.9303    0.5415    2.1822 N   0  0  0  0  0  0  0  0  0  0  0  0
   -0.1211   -0.7374   -2.7450 N   0  0  0  0  0  0  0  0  0  0  0  0
    2.1639    1.8838    2.4203 O   0  0  0  0  0  0  0  0  0  0  0  0
    3.8974   -0.0347   -0.5450 H   0  0  0  0  0  0  0  0  0  0  0  0
    2.7266   -0.8271   -2.5741 H   0  0  0  0  0  0  0  0  0  0  0  0
   -2.2939    1.3375    0.3619 H   0  0  0  0  0  0  0  0  0  0  0  0
   -3.3362    0.8228   -0.9471 H   0  0  0  0  0  0  0  0  0  0  0  0
   -4.1463   -0.3309    0.9506 H   0  0  0  0  0  0  0  0  0  0  0  0
   -3.2835   -1.5598    0.0228 H   0  0  0  0  0  0  0  0  0  0  0  0
    0.1181    0.9327    1.3110 H   0  0  0  0  0  0  0  0  0  0  0  0
   -2.2374   -0.7056   -3.0034 H   0  0  0  0  0  0  0  0  0  0  0  0
   -2.8258   -1.6547    2.3576 H   0  0  0  0  0  0  0  0  0  0  0  0
   -2.2594   -0.1217    2.3789 H   0  0  0  0  0  0  0  0  0  0  0  0
    4.3114   -0.2068    1.5963 H   0  0  0  0  0  0  0  0  0  0  0  0
    0.1455   -1.1297   -3.6371 H   0  0  0  0  0  0  0  0  0  0  0  0
    2.7354    2.0943    3.1781 H   0  0  0  0  0  0  0  0  0  0  0  0
  1  2  2  0
  1  7  1  0
  2 10  1  0
  3  4  1  0
  3  8  1  0
  4 12  1  0
  5  7  2  0
  5  9  1  0
  6  8  2  0
  6 14  1  0
  7 11  1  0
  8  9  1  0
  9 10  2  0
 10 14  1  0
 11 13  2  3
 11 15  1  0
  1 16  1  0
  2 17  1  0
  3 18  1  0
  3 19  1  0
  4 20  1  0
  4 21  1  0
  5 22  1  0
  6 23  1  0
 12 24  1  0
 12 25  1  0
 13 26  1  0
 14 27  1  0
 15 28  1  0
M  END
