
     RDKit          3D

 27 29  0  0  0  0  0  0  0  0999 V2000
   -4.1719    0.5960    0.1977 C   0  0  0  0  0  0  0  0  0  0  0  0
   -1.1428    1.0189   -0.0599 C   0  0  0  0  0  0  0  0  0  0  0  0
   -1.0224   -1.3939   -0.5639 C   0  0  0  0  0  0  0  0  0  0  0  0
    1.4207    1.2941    0.2066 C   0  0  0  0  0  0  0  0  0  0  0  0
    1.5607   -1.5056   -0.3764 C   0  0  0  0  0  0  0  0  0  0  0  0
    4.6944    0.0035    0.1592 C   0  0  0  0  0  0  0  0  0  0  0  0
    0.2775    0.5421   -0.0223 C   0  0  0  0  0  0  0  0  0  0  0  0
    0.3465   -0.8374   -0.3096 C   0  0  0  0  0  0  0  0  0  0  0  0
   -1.9228   -0.3131    0.0879 C   0  0  0  0  0  0  0  0  0  0  0  0
    2.6183    0.6097    0.1475 C   0  0  0  0  0  0  0  0  0  0  0  0
    2.6860   -0.7435   -0.1343 C   0  0  0  0  0  0  0  0  0  0  0  0
   -3.2708   -0.3164   -0.4926 N   0  0  0  0  0  0  0  0  0  0  0  0
    3.8490    1.1575    0.3437 O   0  0  0  0  0  0  0  0  0  0  0  0
    3.9671   -1.2034   -0.1480 O   0  0  0  0  0  0  0  0  0  0  0  0
   -5.1733    0.5121   -0.2361 H   0  0  0  0  0  0  0  0  0  0  0  0
   -3.8533    1.6382    0.0981 H   0  0  0  0  0  0  0  0  0  0  0  0
   -4.2535    0.3453    1.2602 H   0  0  0  0  0  0  0  0  0  0  0  0
   -1.3414    1.5056   -1.0213 H   0  0  0  0  0  0  0  0  0  0  0  0
   -1.3705    1.7071    0.7597 H   0  0  0  0  0  0  0  0  0  0  0  0
   -1.1696   -2.3706   -0.0927 H   0  0  0  0  0  0  0  0  0  0  0  0
   -1.1892   -1.4739   -1.6442 H   0  0  0  0  0  0  0  0  0  0  0  0
    1.3850    2.3552    0.4173 H   0  0  0  0  0  0  0  0  0  0  0  0
    1.6294   -2.5611   -0.6067 H   0  0  0  0  0  0  0  0  0  0  0  0
    5.2701   -0.1590    1.0777 H   0  0  0  0  0  0  0  0  0  0  0  0
    5.3928    0.2091   -0.6602 H   0  0  0  0  0  0  0  0  0  0  0  0
   -1.9953   -0.5566    1.1590 H   0  0  0  0  0  0  0  0  0  0  0  0
   -3.2205   -0.0599   -1.4788 H   0  0  0  0  0  0  0  0  0  0  0  0
  1 12  1  0
  2  7  1  0
  2  9  1  0
  3  8  1  0
  3  9  1  0
  4  7  2  0
  4 10  1  0
  5  8  2  0
  5 11  1  0
  6 13  1  0
  6 14  1  0
  7  8  1  0
  9 12  1  0
 10 11  2  0
 10 13  1  0
 11 14  1  0
  1 15  1  0
  1 16  1  0
  1 17  1  0
  2 18  1  0
  2 19  1  0
  3 20  1  0
  3 21  1  0
  4 22  1  0
  5 23  1  0
  6 24  1  0
  6 25  1  0
  9 26  1  0
 12 27  1  0
M  END
