
     RDKit          3D

 31 31  0  0  0  0  0  0  0  0999 V2000
   -2.2369    2.7401   -0.5010 C   0  0  0  0  0  0  0  0  0  0  0  0
    3.4565   -1.8434    0.6203 C   0  0  0  0  0  0  0  0  0  0  0  0
   -1.6446   -1.1503    1.0044 C   0  0  0  0  0  0  0  0  0  0  0  0
   -2.3766   -1.8466   -0.1477 C   0  0  0  0  0  0  0  0  0  0  0  0
    0.8127   -0.8384    0.5479 C   0  0  0  0  0  0  0  0  0  0  0  0
    0.4010    1.7179   -0.4677 C   0  0  0  0  0  0  0  0  0  0  0  0
   -0.4891   -0.3048    0.5080 C   0  0  0  0  0  0  0  0  0  0  0  0
    1.7062    1.1863   -0.4213 C   0  0  0  0  0  0  0  0  0  0  0  0
   -0.6951    0.9837   -0.0099 C   0  0  0  0  0  0  0  0  0  0  0  0
    1.9089   -0.1025    0.0902 C   0  0  0  0  0  0  0  0  0  0  0  0
    2.8713    2.0026   -0.9232 C   0  0  0  0  0  0  0  0  0  0  0  0
    3.8091    2.2522    0.0332 F   0  0  0  0  0  0  0  0  0  0  0  0
    3.5278    1.4224   -1.9668 F   0  0  0  0  0  0  0  0  0  0  0  0
    2.4957    3.2353   -1.3819 F   0  0  0  0  0  0  0  0  0  0  0  0
   -3.4604   -2.6936    0.3518 N   0  0  0  0  0  0  0  0  0  0  0  0
   -1.9923    1.4213   -0.0284 O   0  0  0  0  0  0  0  0  0  0  0  0
    3.2029   -0.5456    0.0952 O   0  0  0  0  0  0  0  0  0  0  0  0
   -3.3121    2.9283   -0.4231 H   0  0  0  0  0  0  0  0  0  0  0  0
   -1.7234    3.4835    0.1175 H   0  0  0  0  0  0  0  0  0  0  0  0
   -1.9578    2.8386   -1.5551 H   0  0  0  0  0  0  0  0  0  0  0  0
    2.9516   -2.6134    0.0280 H   0  0  0  0  0  0  0  0  0  0  0  0
    4.5334   -2.0255    0.5539 H   0  0  0  0  0  0  0  0  0  0  0  0
    3.1730   -1.9042    1.6761 H   0  0  0  0  0  0  0  0  0  0  0  0
   -1.2697   -1.8996    1.7143 H   0  0  0  0  0  0  0  0  0  0  0  0
   -2.3369   -0.5237    1.5814 H   0  0  0  0  0  0  0  0  0  0  0  0
   -1.6768   -2.4707   -0.7151 H   0  0  0  0  0  0  0  0  0  0  0  0
   -2.7914   -1.1102   -0.8451 H   0  0  0  0  0  0  0  0  0  0  0  0
    0.9394   -1.8418    0.9447 H   0  0  0  0  0  0  0  0  0  0  0  0
    0.2706    2.7177   -0.8735 H   0  0  0  0  0  0  0  0  0  0  0  0
   -3.9520   -3.1045   -0.4412 H   0  0  0  0  0  0  0  0  0  0  0  0
   -4.1448   -2.1111    0.8343 H   0  0  0  0  0  0  0  0  0  0  0  0
  1 16  1  0
  2 17  1  0
  3  4  1  0
  3  7  1  0
  4 15  1  0
  5  7  2  0
  5 10  1  0
  6  8  1  0
  6  9  2  0
  7  9  1  0
  8 10  2  0
  8 11  1  0
  9 16  1  0
 10 17  1  0
 11 12  1  0
 11 13  1  0
 11 14  1  0
  1 18  1  0
  1 19  1  0
  1 20  1  0
  2 21  1  0
  2 22  1  0
  2 23  1  0
  3 24  1  0
  3 25  1  0
  4 26  1  0
  4 27  1  0
  5 28  1  0
  6 29  1  0
 15 30  1  0
 15 31  1  0
M  END
