
     RDKit          3D

 28 29  0  0  0  0  0  0  0  0999 V2000
   -2.9623    1.4726    1.0637 C   0  0  0  0  0  0  0  0  0  0  0  0
   -4.1525   -0.1385   -0.3789 C   0  0  0  0  0  0  0  0  0  0  0  0
    4.3166    0.7127   -0.3408 C   0  0  0  0  0  0  0  0  0  0  0  0
    3.2079    1.4262   -0.7907 C   0  0  0  0  0  0  0  0  0  0  0  0
    4.1396   -0.4861    0.3465 C   0  0  0  0  0  0  0  0  0  0  0  0
    1.9204    0.9421   -0.5519 C   0  0  0  0  0  0  0  0  0  0  0  0
    2.8526   -0.9718    0.5860 C   0  0  0  0  0  0  0  0  0  0  0  0
   -0.1730   -1.6838   -0.7402 C   0  0  0  0  0  0  0  0  0  0  0  0
    1.7259   -0.2601    0.1449 C   0  0  0  0  0  0  0  0  0  0  0  0
    0.3435   -0.8169    0.3922 C   0  0  0  0  0  0  0  0  0  0  0  0
   -1.7379   -0.2956   -0.1281 C   0  0  0  0  0  0  0  0  0  0  0  0
   -1.6096   -1.3881   -0.8123 N   0  0  0  0  0  0  0  0  0  0  0  0
   -2.8849    0.4342    0.0487 N   0  0  0  0  0  0  0  0  0  0  0  0
   -0.6400    0.2067    0.4992 O   0  0  0  0  0  0  0  0  0  0  0  0
   -2.1254    2.1737    0.9757 H   0  0  0  0  0  0  0  0  0  0  0  0
   -3.8799    2.0622    0.9636 H   0  0  0  0  0  0  0  0  0  0  0  0
   -2.9485    1.0295    2.0649 H   0  0  0  0  0  0  0  0  0  0  0  0
   -4.0720   -0.5768   -1.3795 H   0  0  0  0  0  0  0  0  0  0  0  0
   -4.4745   -0.9167    0.3209 H   0  0  0  0  0  0  0  0  0  0  0  0
   -4.9361    0.6250   -0.4294 H   0  0  0  0  0  0  0  0  0  0  0  0
    5.3183    1.0906   -0.5274 H   0  0  0  0  0  0  0  0  0  0  0  0
    3.3437    2.3603   -1.3296 H   0  0  0  0  0  0  0  0  0  0  0  0
    5.0046   -1.0439    0.6956 H   0  0  0  0  0  0  0  0  0  0  0  0
    1.0657    1.5101   -0.9148 H   0  0  0  0  0  0  0  0  0  0  0  0
    2.7355   -1.9113    1.1220 H   0  0  0  0  0  0  0  0  0  0  0  0
    0.0012   -2.7458   -0.5380 H   0  0  0  0  0  0  0  0  0  0  0  0
    0.2881   -1.4467   -1.7063 H   0  0  0  0  0  0  0  0  0  0  0  0
    0.3329   -1.3638    1.3439 H   0  0  0  0  0  0  0  0  0  0  0  0
  1 13  1  0
  2 13  1  0
  3  4  2  0
  3  5  1  0
  4  6  1  0
  5  7  2  0
  6  9  2  0
  7  9  1  0
  8 10  1  0
  8 12  1  0
  9 10  1  0
 10 14  1  0
 11 12  2  0
 11 13  1  0
 11 14  1  0
  1 15  1  0
  1 16  1  0
  1 17  1  0
  2 18  1  0
  2 19  1  0
  2 20  1  0
  3 21  1  0
  4 22  1  0
  5 23  1  0
  6 24  1  0
  7 25  1  0
  8 26  1  0
  8 27  1  0
 10 28  1  0
M  END
