
     RDKit          3D

 28 29  0  0  0  0  0  0  0  0999 V2000
   -1.8179    2.4948   -0.6640 C   0  0  0  0  0  0  0  0  0  0  0  0
    3.5956    0.1111    0.6108 C   0  0  0  0  0  0  0  0  0  0  0  0
    2.8784    1.3001    0.4565 C   0  0  0  0  0  0  0  0  0  0  0  0
   -1.5599   -0.7491   -0.6787 C   0  0  0  0  0  0  0  0  0  0  0  0
   -2.2331   -1.2617    0.6009 C   0  0  0  0  0  0  0  0  0  0  0  0
    1.6203   -1.2103    0.1002 C   0  0  0  0  0  0  0  0  0  0  0  0
   -0.6324    1.6405   -0.3948 C   0  0  0  0  0  0  0  0  0  0  0  0
    2.9731   -1.1173    0.4357 C   0  0  0  0  0  0  0  0  0  0  0  0
   -0.4904    0.2612   -0.3928 C   0  0  0  0  0  0  0  0  0  0  0  0
    0.8758   -0.0217   -0.0619 C   0  0  0  0  0  0  0  0  0  0  0  0
    1.5223    1.1997    0.1213 C   0  0  0  0  0  0  0  0  0  0  0  0
   -3.2831   -2.2439    0.3207 N   0  0  0  0  0  0  0  0  0  0  0  0
    0.5891    2.1863   -0.0880 N   0  0  0  0  0  0  0  0  0  0  0  0
    3.7342   -2.2390    0.6046 O   0  0  0  0  0  0  0  0  0  0  0  0
   -2.6809    2.1451   -0.0885 H   0  0  0  0  0  0  0  0  0  0  0  0
   -1.6335    3.5389   -0.3909 H   0  0  0  0  0  0  0  0  0  0  0  0
   -2.0750    2.4606   -1.7273 H   0  0  0  0  0  0  0  0  0  0  0  0
    4.6501    0.1472    0.8715 H   0  0  0  0  0  0  0  0  0  0  0  0
    3.3616    2.2615    0.5940 H   0  0  0  0  0  0  0  0  0  0  0  0
   -2.3141   -0.3061   -1.3416 H   0  0  0  0  0  0  0  0  0  0  0  0
   -1.1237   -1.5905   -1.2323 H   0  0  0  0  0  0  0  0  0  0  0  0
   -1.4907   -1.7239    1.2614 H   0  0  0  0  0  0  0  0  0  0  0  0
   -2.6742   -0.4267    1.1573 H   0  0  0  0  0  0  0  0  0  0  0  0
    1.1380   -2.1713   -0.0350 H   0  0  0  0  0  0  0  0  0  0  0  0
   -3.9912   -1.8221   -0.2792 H   0  0  0  0  0  0  0  0  0  0  0  0
   -2.8914   -3.0219   -0.2084 H   0  0  0  0  0  0  0  0  0  0  0  0
    0.7843    3.1753   -0.0196 H   0  0  0  0  0  0  0  0  0  0  0  0
    3.1689   -3.0165    0.4680 H   0  0  0  0  0  0  0  0  0  0  0  0
  1  7  1  0
  2  3  2  0
  2  8  1  0
  3 11  1  0
  4  5  1  0
  4  9  1  0
  5 12  1  0
  6  8  2  0
  6 10  1  0
  7  9  2  0
  7 13  1  0
  8 14  1  0
  9 10  1  0
 10 11  2  0
 11 13  1  0
  1 15  1  0
  1 16  1  0
  1 17  1  0
  2 18  1  0
  3 19  1  0
  4 20  1  0
  4 21  1  0
  5 22  1  0
  5 23  1  0
  6 24  1  0
 12 25  1  0
 12 26  1  0
 13 27  1  0
 14 28  1  0
M  END
