
     RDKit          3D

 29 30  0  0  0  0  0  0  0  0999 V2000
    3.2262   -0.1050    1.6909 C   0  0  0  0  0  0  0  0  0  0  0  0
    2.2513   -0.5186    0.5949 C   0  0  0  0  0  0  0  0  0  0  0  0
   -0.9737   -1.4479   -0.8143 C   0  0  0  0  0  0  0  0  0  0  0  0
   -2.2366   -1.7289   -0.2830 C   0  0  0  0  0  0  0  0  0  0  0  0
    0.8798    0.1650   -1.4544 C   0  0  0  0  0  0  0  0  0  0  0  0
   -1.2949    0.9328   -0.4150 C   0  0  0  0  0  0  0  0  0  0  0  0
   -4.5102    0.6365    0.9777 C   0  0  0  0  0  0  0  0  0  0  0  0
   -0.4915   -0.1205   -0.8823 C   0  0  0  0  0  0  0  0  0  0  0  0
    1.9212    0.6115   -0.4014 C   0  0  0  0  0  0  0  0  0  0  0  0
   -2.9925   -0.6697    0.1680 C   0  0  0  0  0  0  0  0  0  0  0  0
   -2.5350    0.6247    0.1034 C   0  0  0  0  0  0  0  0  0  0  0  0
    3.1304    1.0635   -1.1061 N   0  0  0  0  0  0  0  0  0  0  0  0
   -4.2359   -0.7547    0.7119 O   0  0  0  0  0  0  0  0  0  0  0  0
   -3.4332    1.5180    0.5984 O   0  0  0  0  0  0  0  0  0  0  0  0
    4.2207    0.1081    1.2880 H   0  0  0  0  0  0  0  0  0  0  0  0
    2.8671    0.7827    2.2211 H   0  0  0  0  0  0  0  0  0  0  0  0
    3.3337   -0.9143    2.4206 H   0  0  0  0  0  0  0  0  0  0  0  0
    1.3303   -0.8556    1.0846 H   0  0  0  0  0  0  0  0  0  0  0  0
    2.6593   -1.3868    0.0622 H   0  0  0  0  0  0  0  0  0  0  0  0
   -0.3601   -2.2707   -1.1765 H   0  0  0  0  0  0  0  0  0  0  0  0
   -2.6102   -2.7449   -0.2280 H   0  0  0  0  0  0  0  0  0  0  0  0
    0.7607    0.9486   -2.2158 H   0  0  0  0  0  0  0  0  0  0  0  0
    1.2485   -0.7176   -1.9943 H   0  0  0  0  0  0  0  0  0  0  0  0
   -0.9605    1.9641   -0.4591 H   0  0  0  0  0  0  0  0  0  0  0  0
   -5.4119    0.9274    0.4265 H   0  0  0  0  0  0  0  0  0  0  0  0
   -4.7002    0.7572    2.0504 H   0  0  0  0  0  0  0  0  0  0  0  0
    1.5246    1.4694    0.1550 H   0  0  0  0  0  0  0  0  0  0  0  0
    3.7898    1.4613   -0.4387 H   0  0  0  0  0  0  0  0  0  0  0  0
    3.6029    0.2643   -1.5276 H   0  0  0  0  0  0  0  0  0  0  0  0
  1  2  1  0
  2  9  1  0
  3  4  2  0
  3  8  1  0
  4 10  1  0
  5  8  1  0
  5  9  1  0
  6  8  2  0
  6 11  1  0
  7 13  1  0
  7 14  1  0
  9 12  1  0
 10 11  2  0
 10 13  1  0
 11 14  1  0
  1 15  1  0
  1 16  1  0
  1 17  1  0
  2 18  1  0
  2 19  1  0
  3 20  1  0
  4 21  1  0
  5 22  1  0
  5 23  1  0
  6 24  1  0
  7 25  1  0
  7 26  1  0
  9 27  1  0
 12 28  1  0
 12 29  1  0
M  END
