
     RDKit          3D

 31 31  0  0  0  0  0  0  0  0999 V2000
   -3.7999   -1.7790    0.2973 C   0  0  0  0  0  0  0  0  0  0  0  0
    0.1375    2.1880   -2.1995 C   0  0  0  0  0  0  0  0  0  0  0  0
    4.5470    0.6857    0.5400 C   0  0  0  0  0  0  0  0  0  0  0  0
   -1.4144   -1.3161   -0.4001 C   0  0  0  0  0  0  0  0  0  0  0  0
    0.6012   -1.2877    1.1064 C   0  0  0  0  0  0  0  0  0  0  0  0
    1.5914    1.0442   -0.0631 C   0  0  0  0  0  0  0  0  0  0  0  0
   -2.6442   -0.7824    0.3678 C   0  0  0  0  0  0  0  0  0  0  0  0
   -0.1104   -0.6817    0.0535 C   0  0  0  0  0  0  0  0  0  0  0  0
    1.7993   -0.7389    1.5632 C   0  0  0  0  0  0  0  0  0  0  0  0
    0.3892    0.5004   -0.5271 C   0  0  0  0  0  0  0  0  0  0  0  0
    2.3034    0.4136    0.9622 C   0  0  0  0  0  0  0  0  0  0  0  0
    2.7030   -1.5944    2.9929 Br  0  0  0  0  0  0  0  0  0  0  0  0
   -3.1166    0.4932   -0.1802 N   0  0  0  0  0  0  0  0  0  0  0  0
   -0.3781    1.0514   -1.5183 O   0  0  0  0  0  0  0  0  0  0  0  0
    3.4610    0.9932    1.4153 O   0  0  0  0  0  0  0  0  0  0  0  0
   -4.6738   -1.4098    0.8459 H   0  0  0  0  0  0  0  0  0  0  0  0
   -4.1043   -1.9689   -0.7382 H   0  0  0  0  0  0  0  0  0  0  0  0
   -3.5120   -2.7366    0.7446 H   0  0  0  0  0  0  0  0  0  0  0  0
    0.2215    3.0453   -1.5239 H   0  0  0  0  0  0  0  0  0  0  0  0
   -0.5725    2.4548   -2.9882 H   0  0  0  0  0  0  0  0  0  0  0  0
    1.0969    1.9630   -2.6769 H   0  0  0  0  0  0  0  0  0  0  0  0
    5.4676    1.0433    1.0108 H   0  0  0  0  0  0  0  0  0  0  0  0
    4.6440   -0.3943    0.3820 H   0  0  0  0  0  0  0  0  0  0  0  0
    4.4351    1.2021   -0.4193 H   0  0  0  0  0  0  0  0  0  0  0  0
   -1.3290   -2.4013   -0.2500 H   0  0  0  0  0  0  0  0  0  0  0  0
   -1.5420   -1.1956   -1.4838 H   0  0  0  0  0  0  0  0  0  0  0  0
    0.2109   -2.1911    1.5705 H   0  0  0  0  0  0  0  0  0  0  0  0
    1.9938    1.9659   -0.4685 H   0  0  0  0  0  0  0  0  0  0  0  0
   -2.3819   -0.6322    1.4223 H   0  0  0  0  0  0  0  0  0  0  0  0
   -3.7106    0.9609    0.5017 H   0  0  0  0  0  0  0  0  0  0  0  0
   -2.3133    1.1052   -0.3396 H   0  0  0  0  0  0  0  0  0  0  0  0
  1  7  1  0
  2 14  1  0
  3 15  1  0
  4  7  1  0
  4  8  1  0
  5  8  2  0
  5  9  1  0
  6 10  2  0
  6 11  1  0
  7 13  1  0
  8 10  1  0
  9 11  2  0
  9 12  1  0
 10 14  1  0
 11 15  1  0
  1 16  1  0
  1 17  1  0
  1 18  1  0
  2 19  1  0
  2 20  1  0
  2 21  1  0
  3 22  1  0
  3 23  1  0
  3 24  1  0
  4 25  1  0
  4 26  1  0
  5 27  1  0
  6 28  1  0
  7 29  1  0
 13 30  1  0
 13 31  1  0
M  END
