
     RDKit          3D

 32 32  0  0  0  0  0  0  0  0999 V2000
    2.4238    2.6739    0.3151 C   0  0  0  0  0  0  0  0  0  0  0  0
   -2.4559   -0.8432    1.2498 C   0  0  0  0  0  0  0  0  0  0  0  0
   -2.7133    0.9802   -0.4684 C   0  0  0  0  0  0  0  0  0  0  0  0
    1.7362    1.6763    0.8847 C   0  0  0  0  0  0  0  0  0  0  0  0
    0.4141    1.1559    0.3663 C   0  0  0  0  0  0  0  0  0  0  0  0
   -0.8845   -0.8085   -0.8083 C   0  0  0  0  0  0  0  0  0  0  0  0
   -2.2693   -0.4605   -0.2134 C   0  0  0  0  0  0  0  0  0  0  0  0
    1.4461   -0.3138   -1.3526 C   0  0  0  0  0  0  0  0  0  0  0  0
    0.9799   -1.2498    0.8044 C   0  0  0  0  0  0  0  0  0  0  0  0
    2.4485   -2.2134   -0.6305 C   0  0  0  0  0  0  0  0  0  0  0  0
    0.4574   -0.2739   -0.2138 C   0  0  0  0  0  0  0  0  0  0  0  0
    2.3523   -1.1975   -1.5481 N   0  0  0  0  0  0  0  0  0  0  0  0
    1.8828   -2.1386    0.6180 N   0  0  0  0  0  0  0  0  0  0  0  0
    1.3218    0.6451   -2.2817 O   0  0  0  0  0  0  0  0  0  0  0  0
    0.4386   -1.1943    2.0256 O   0  0  0  0  0  0  0  0  0  0  0  0
    3.0766   -3.2196   -0.9310 O   0  0  0  0  0  0  0  0  0  0  0  0
    2.0719    3.1710   -0.5842 H   0  0  0  0  0  0  0  0  0  0  0  0
    3.3620    3.0173    0.7411 H   0  0  0  0  0  0  0  0  0  0  0  0
   -1.9059   -0.1819    1.9233 H   0  0  0  0  0  0  0  0  0  0  0  0
   -3.5138   -0.7740    1.5276 H   0  0  0  0  0  0  0  0  0  0  0  0
   -2.1387   -1.8754    1.4287 H   0  0  0  0  0  0  0  0  0  0  0  0
   -3.7933    1.0742   -0.3073 H   0  0  0  0  0  0  0  0  0  0  0  0
   -2.5079    1.2805   -1.5009 H   0  0  0  0  0  0  0  0  0  0  0  0
   -2.2317    1.6941    0.2032 H   0  0  0  0  0  0  0  0  0  0  0  0
    2.1289    1.2234    1.7940 H   0  0  0  0  0  0  0  0  0  0  0  0
   -0.2802    1.2053    1.2115 H   0  0  0  0  0  0  0  0  0  0  0  0
    0.0284    1.8504   -0.3911 H   0  0  0  0  0  0  0  0  0  0  0  0
   -0.8239   -1.9077   -0.8308 H   0  0  0  0  0  0  0  0  0  0  0  0
   -0.9385   -0.5255   -1.8699 H   0  0  0  0  0  0  0  0  0  0  0  0
   -2.9781   -1.0852   -0.7774 H   0  0  0  0  0  0  0  0  0  0  0  0
    2.0089    0.4988   -2.9562 H   0  0  0  0  0  0  0  0  0  0  0  0
    0.8566   -1.8837    2.5725 H   0  0  0  0  0  0  0  0  0  0  0  0
  1  4  2  3
  2  7  1  0
  3  7  1  0
  4  5  1  0
  5 11  1  0
  6  7  1  0
  6 11  1  0
  8 11  1  0
  8 12  2  0
  8 14  1  0
  9 11  1  0
  9 13  2  0
  9 15  1  0
 10 12  1  0
 10 13  1  0
 10 16  2  0
  1 17  1  0
  1 18  1  0
  2 19  1  0
  2 20  1  0
  2 21  1  0
  3 22  1  0
  3 23  1  0
  3 24  1  0
  4 25  1  0
  5 26  1  0
  5 27  1  0
  6 28  1  0
  6 29  1  0
  7 30  1  0
 14 31  1  0
 15 32  1  0
M  END
