
     RDKit          3D

 31 31  0  0  0  0  0  0  0  0999 V2000
   -3.2919    0.7621   -0.4256 C   0  0  0  0  0  0  0  0  0  0  0  0
   -2.6526   -1.6092   -0.1105 C   0  0  0  0  0  0  0  0  0  0  0  0
   -2.5207   -0.0103    1.7972 C   0  0  0  0  0  0  0  0  0  0  0  0
    2.0946   -0.7082   -1.1755 C   0  0  0  0  0  0  0  0  0  0  0  0
    2.3157    0.7577    0.7360 C   0  0  0  0  0  0  0  0  0  0  0  0
    3.3346   -0.2754   -1.6457 C   0  0  0  0  0  0  0  0  0  0  0  0
    3.5589    1.1873    0.2643 C   0  0  0  0  0  0  0  0  0  0  0  0
    0.2162   -0.6367    0.5112 C   0  0  0  0  0  0  0  0  0  0  0  0
   -0.8878    0.2124   -0.1316 C   0  0  0  0  0  0  0  0  0  0  0  0
    1.5733   -0.1946    0.0209 C   0  0  0  0  0  0  0  0  0  0  0  0
    4.0565    0.6669   -0.9245 C   0  0  0  0  0  0  0  0  0  0  0  0
   -2.3207   -0.1786    0.2965 N   0  0  0  0  0  4  0  0  0  0  0  0
    5.2616    1.0562   -1.4254 O   0  0  0  0  0  0  0  0  0  0  0  0
   -3.0635    1.7896   -0.1272 H   0  0  0  0  0  0  0  0  0  0  0  0
   -4.3131    0.4986   -0.1342 H   0  0  0  0  0  0  0  0  0  0  0  0
   -3.1584    0.6350   -1.5040 H   0  0  0  0  0  0  0  0  0  0  0  0
   -2.4463   -1.7222   -1.1786 H   0  0  0  0  0  0  0  0  0  0  0  0
   -2.0409   -2.2969    0.4785 H   0  0  0  0  0  0  0  0  0  0  0  0
   -3.7119   -1.7899    0.0962 H   0  0  0  0  0  0  0  0  0  0  0  0
   -2.2223    1.0046    2.0746 H   0  0  0  0  0  0  0  0  0  0  0  0
   -1.9124   -0.7513    2.3216 H   0  0  0  0  0  0  0  0  0  0  0  0
   -3.5784   -0.1744    2.0253 H   0  0  0  0  0  0  0  0  0  0  0  0
    1.5520   -1.4535   -1.7526 H   0  0  0  0  0  0  0  0  0  0  0  0
    1.9425    1.1710    1.6707 H   0  0  0  0  0  0  0  0  0  0  0  0
    3.7433   -0.6754   -2.5705 H   0  0  0  0  0  0  0  0  0  0  0  0
    4.1226    1.9213    0.8328 H   0  0  0  0  0  0  0  0  0  0  0  0
    0.1907   -0.5568    1.6035 H   0  0  0  0  0  0  0  0  0  0  0  0
    0.0894   -1.6991    0.2759 H   0  0  0  0  0  0  0  0  0  0  0  0
   -0.8553    0.1276   -1.2251 H   0  0  0  0  0  0  0  0  0  0  0  0
   -0.7607    1.2708    0.1294 H   0  0  0  0  0  0  0  0  0  0  0  0
    5.6851    1.6713   -0.8037 H   0  0  0  0  0  0  0  0  0  0  0  0
  1 12  1  0
  2 12  1  0
  3 12  1  0
  4  6  2  0
  4 10  1  0
  5  7  1  0
  5 10  2  0
  6 11  1  0
  7 11  2  0
  8  9  1  0
  8 10  1  0
  9 12  1  0
 11 13  1  0
  1 14  1  0
  1 15  1  0
  1 16  1  0
  2 17  1  0
  2 18  1  0
  2 19  1  0
  3 20  1  0
  3 21  1  0
  3 22  1  0
  4 23  1  0
  5 24  1  0
  6 25  1  0
  7 26  1  0
  8 27  1  0
  8 28  1  0
  9 29  1  0
  9 30  1  0
 13 31  1  0
M  CHG  1  12   1
M  END
