
     RDKit          3D

 30 30  0  0  0  0  0  0  0  0999 V2000
    0.7028   -2.3238    1.0392 C   0  0  0  0  0  0  0  0  0  0  0  0
    1.1548    2.6345    0.0495 C   0  0  0  0  0  0  0  0  0  0  0  0
   -3.4081    0.1011   -1.5897 C   0  0  0  0  0  0  0  0  0  0  0  0
    3.7003   -0.1806    0.1231 C   0  0  0  0  0  0  0  0  0  0  0  0
    2.9106   -1.2784    0.4637 C   0  0  0  0  0  0  0  0  0  0  0  0
    3.1247    1.0829   -0.0074 C   0  0  0  0  0  0  0  0  0  0  0  0
   -1.0918    0.0981   -0.5780 C   0  0  0  0  0  0  0  0  0  0  0  0
    1.5329   -1.1282    0.6689 C   0  0  0  0  0  0  0  0  0  0  0  0
    1.7497    1.2635    0.1923 C   0  0  0  0  0  0  0  0  0  0  0  0
   -2.6053    0.1548   -0.2952 C   0  0  0  0  0  0  0  0  0  0  0  0
    0.9579    0.1404    0.4836 C   0  0  0  0  0  0  0  0  0  0  0  0
   -3.0198   -0.9578    0.5740 N   0  0  0  0  0  0  0  0  0  0  0  0
   -0.3939    0.2990    0.6655 O   0  0  0  0  0  0  0  0  0  0  0  0
   -0.0617   -2.0572    1.7761 H   0  0  0  0  0  0  0  0  0  0  0  0
    1.3207   -3.1067    1.4922 H   0  0  0  0  0  0  0  0  0  0  0  0
    0.2192   -2.7389    0.1500 H   0  0  0  0  0  0  0  0  0  0  0  0
    1.9058    3.4096    0.2369 H   0  0  0  0  0  0  0  0  0  0  0  0
    0.7619    2.7712   -0.9624 H   0  0  0  0  0  0  0  0  0  0  0  0
    0.3487    2.7924    0.7734 H   0  0  0  0  0  0  0  0  0  0  0  0
   -3.1442    0.9399   -2.2427 H   0  0  0  0  0  0  0  0  0  0  0  0
   -4.4835    0.1633   -1.3893 H   0  0  0  0  0  0  0  0  0  0  0  0
   -3.2196   -0.8268   -2.1414 H   0  0  0  0  0  0  0  0  0  0  0  0
    4.7687   -0.3085   -0.0310 H   0  0  0  0  0  0  0  0  0  0  0  0
    3.3790   -2.2538    0.5744 H   0  0  0  0  0  0  0  0  0  0  0  0
    3.7589    1.9298   -0.2599 H   0  0  0  0  0  0  0  0  0  0  0  0
   -0.8265   -0.8675   -1.0274 H   0  0  0  0  0  0  0  0  0  0  0  0
   -0.8232    0.8960   -1.2810 H   0  0  0  0  0  0  0  0  0  0  0  0
   -2.8283    1.0895    0.2334 H   0  0  0  0  0  0  0  0  0  0  0  0
   -2.4218   -0.9451    1.4036 H   0  0  0  0  0  0  0  0  0  0  0  0
   -3.9691   -0.7925    0.9054 H   0  0  0  0  0  0  0  0  0  0  0  0
  1  8  1  0
  2  9  1  0
  3 10  1  0
  4  5  2  0
  4  6  1  0
  5  8  1  0
  6  9  2  0
  7 10  1  0
  7 13  1  0
  8 11  2  0
  9 11  1  0
 10 12  1  0
 11 13  1  0
  1 14  1  0
  1 15  1  0
  1 16  1  0
  2 17  1  0
  2 18  1  0
  2 19  1  0
  3 20  1  0
  3 21  1  0
  3 22  1  0
  4 23  1  0
  5 24  1  0
  6 25  1  0
  7 26  1  0
  7 27  1  0
 10 28  1  0
 12 29  1  0
 12 30  1  0
M  END
