
     RDKit          3D

 32 32  0  0  0  0  0  0  0  0999 V2000
    0.0823    2.6802    0.7443 C   0  0  0  0  0  0  0  0  0  0  0  0
    1.6525   -0.1724    2.4526 C   0  0  0  0  0  0  0  0  0  0  0  0
    4.1277   -0.3150   -0.9889 C   0  0  0  0  0  0  0  0  0  0  0  0
   -0.7020   -1.1420   -1.6338 C   0  0  0  0  0  0  0  0  0  0  0  0
    0.6061   -1.6254   -1.5472 C   0  0  0  0  0  0  0  0  0  0  0  0
   -2.5591    0.4020   -0.9115 C   0  0  0  0  0  0  0  0  0  0  0  0
   -3.4676   -0.0754    0.2322 C   0  0  0  0  0  0  0  0  0  0  0  0
   -1.1341   -0.0955   -0.8072 C   0  0  0  0  0  0  0  0  0  0  0  0
    1.5090   -1.0853   -0.6243 C   0  0  0  0  0  0  0  0  0  0  0  0
   -0.2268    0.4628    0.1084 C   0  0  0  0  0  0  0  0  0  0  0  0
    1.0719   -0.0634    0.2344 C   0  0  0  0  0  0  0  0  0  0  0  0
   -3.6805   -1.5251    0.2410 N   0  0  0  0  0  0  0  0  0  0  0  0
   -0.6883    1.4877    0.8988 O   0  0  0  0  0  0  0  0  0  0  0  0
    1.9291    0.4339    1.1877 O   0  0  0  0  0  0  0  0  0  0  0  0
    3.1560   -1.7893   -0.5790 S   0  0  0  0  0  0  0  0  0  0  0  0
   -0.5842    3.5298    0.9225 H   0  0  0  0  0  0  0  0  0  0  0  0
    0.8768    2.7198    1.4948 H   0  0  0  0  0  0  0  0  0  0  0  0
    0.4986    2.7877   -0.2642 H   0  0  0  0  0  0  0  0  0  0  0  0
    0.6838    0.1536    2.8451 H   0  0  0  0  0  0  0  0  0  0  0  0
    2.4266    0.1539    3.1536 H   0  0  0  0  0  0  0  0  0  0  0  0
    1.6896   -1.2659    2.3933 H   0  0  0  0  0  0  0  0  0  0  0  0
    5.1654   -0.6128   -1.1628 H   0  0  0  0  0  0  0  0  0  0  0  0
    3.7471    0.1563   -1.8993 H   0  0  0  0  0  0  0  0  0  0  0  0
    4.1155    0.4089   -0.1711 H   0  0  0  0  0  0  0  0  0  0  0  0
   -1.3815   -1.5900   -2.3561 H   0  0  0  0  0  0  0  0  0  0  0  0
    0.9133   -2.4344   -2.2072 H   0  0  0  0  0  0  0  0  0  0  0  0
   -2.9899    0.0975   -1.8745 H   0  0  0  0  0  0  0  0  0  0  0  0
   -2.5511    1.4993   -0.9348 H   0  0  0  0  0  0  0  0  0  0  0  0
   -3.0651    0.2254    1.2053 H   0  0  0  0  0  0  0  0  0  0  0  0
   -4.4450    0.4090    0.1299 H   0  0  0  0  0  0  0  0  0  0  0  0
   -2.7828   -1.9858    0.3967 H   0  0  0  0  0  0  0  0  0  0  0  0
   -3.9937   -1.8302   -0.6788 H   0  0  0  0  0  0  0  0  0  0  0  0
  1 13  1  0
  2 14  1  0
  3 15  1  0
  4  5  2  0
  4  8  1  0
  5  9  1  0
  6  7  1  0
  6  8  1  0
  7 12  1  0
  8 10  2  0
  9 11  2  0
  9 15  1  0
 10 11  1  0
 10 13  1  0
 11 14  1  0
  1 16  1  0
  1 17  1  0
  1 18  1  0
  2 19  1  0
  2 20  1  0
  2 21  1  0
  3 22  1  0
  3 23  1  0
  3 24  1  0
  4 25  1  0
  5 26  1  0
  6 27  1  0
  6 28  1  0
  7 29  1  0
  7 30  1  0
 12 31  1  0
 12 32  1  0
M  END
