
     RDKit          3D

 32 32  0  0  0  0  0  0  0  0999 V2000
    3.8155    2.0403    0.3821 C   0  0  0  0  0  0  0  0  0  0  0  0
    2.2493   -1.4122   -1.9955 C   0  0  0  0  0  0  0  0  0  0  0  0
   -0.1915   -3.2390    1.0994 C   0  0  0  0  0  0  0  0  0  0  0  0
   -0.3653    1.6060    0.7567 C   0  0  0  0  0  0  0  0  0  0  0  0
    1.0076    1.8024    0.5858 C   0  0  0  0  0  0  0  0  0  0  0  0
   -2.4645    0.2458    0.7132 C   0  0  0  0  0  0  0  0  0  0  0  0
   -3.2514    0.4875   -0.5803 C   0  0  0  0  0  0  0  0  0  0  0  0
   -0.9668    0.3600    0.5003 C   0  0  0  0  0  0  0  0  0  0  0  0
    1.8161    0.7600    0.1384 C   0  0  0  0  0  0  0  0  0  0  0  0
    1.2214   -0.4806   -0.1575 C   0  0  0  0  0  0  0  0  0  0  0  0
   -0.1602   -0.7046    0.0454 C   0  0  0  0  0  0  0  0  0  0  0  0
   -4.6931    0.4856   -0.3303 N   0  0  0  0  0  0  0  0  0  0  0  0
    3.1714    0.8491   -0.0481 O   0  0  0  0  0  0  0  0  0  0  0  0
    2.0195   -1.5204   -0.5902 O   0  0  0  0  0  0  0  0  0  0  0  0
   -0.8777   -2.3200   -0.3031 S   0  0  0  0  0  0  0  0  0  0  0  0
    4.8913    1.9130    0.2276 H   0  0  0  0  0  0  0  0  0  0  0  0
    3.6516    2.2179    1.4502 H   0  0  0  0  0  0  0  0  0  0  0  0
    3.4935    2.8985   -0.2166 H   0  0  0  0  0  0  0  0  0  0  0  0
    2.9260   -0.5827   -2.2240 H   0  0  0  0  0  0  0  0  0  0  0  0
    2.7299   -2.3379   -2.3261 H   0  0  0  0  0  0  0  0  0  0  0  0
    1.3133   -1.3003   -2.5543 H   0  0  0  0  0  0  0  0  0  0  0  0
   -0.6022   -4.2522    1.0958 H   0  0  0  0  0  0  0  0  0  0  0  0
    0.8967   -3.3101    1.0321 H   0  0  0  0  0  0  0  0  0  0  0  0
   -0.4658   -2.7580    2.0424 H   0  0  0  0  0  0  0  0  0  0  0  0
   -0.9708    2.4423    1.1035 H   0  0  0  0  0  0  0  0  0  0  0  0
    1.4103    2.7844    0.8104 H   0  0  0  0  0  0  0  0  0  0  0  0
   -2.7189   -0.7266    1.1514 H   0  0  0  0  0  0  0  0  0  0  0  0
   -2.7705    0.9804    1.4710 H   0  0  0  0  0  0  0  0  0  0  0  0
   -3.0214   -0.2853   -1.3210 H   0  0  0  0  0  0  0  0  0  0  0  0
   -2.9706    1.4502   -1.0233 H   0  0  0  0  0  0  0  0  0  0  0  0
   -5.1841    0.6388   -1.2103 H   0  0  0  0  0  0  0  0  0  0  0  0
   -4.9387    1.2676    0.2748 H   0  0  0  0  0  0  0  0  0  0  0  0
  1 13  1  0
  2 14  1  0
  3 15  1  0
  4  5  2  0
  4  8  1  0
  5  9  1  0
  6  7  1  0
  6  8  1  0
  7 12  1  0
  8 11  2  0
  9 10  2  0
  9 13  1  0
 10 11  1  0
 10 14  1  0
 11 15  1  0
  1 16  1  0
  1 17  1  0
  1 18  1  0
  2 19  1  0
  2 20  1  0
  2 21  1  0
  3 22  1  0
  3 23  1  0
  3 24  1  0
  4 25  1  0
  5 26  1  0
  6 27  1  0
  6 28  1  0
  7 29  1  0
  7 30  1  0
 12 31  1  0
 12 32  1  0
M  END
