
     RDKit          3D

 32 32  0  0  0  0  0  0  0  0999 V2000
   -4.3674   -0.8752   -0.9985 C   0  0  0  0  0  0  0  0  0  0  0  0
   -3.5508    0.6897    0.7770 C   0  0  0  0  0  0  0  0  0  0  0  0
    2.3400   -1.2555   -0.1137 C   0  0  0  0  0  0  0  0  0  0  0  0
    3.5615   -1.2560    0.5634 C   0  0  0  0  0  0  0  0  0  0  0  0
    2.4246    1.1600   -0.3015 C   0  0  0  0  0  0  0  0  0  0  0  0
   -0.7603   -0.1202   -0.2489 C   0  0  0  0  0  0  0  0  0  0  0  0
   -3.1804   -0.5013   -0.1085 C   0  0  0  0  0  0  0  0  0  0  0  0
    1.7573   -0.0518   -0.5539 C   0  0  0  0  0  0  0  0  0  0  0  0
    4.2019   -0.0510    0.8015 C   0  0  0  0  0  0  0  0  0  0  0  0
    3.6431    1.1491    0.3711 C   0  0  0  0  0  0  0  0  0  0  0  0
    0.4158   -0.0466   -1.2532 C   0  0  0  0  0  0  0  0  0  0  0  0
   -2.0364   -0.2177   -0.9862 N   0  0  0  0  0  0  0  0  0  0  0  0
    5.3955   -0.0483    1.4647 O   0  0  0  0  0  0  0  0  0  0  0  0
    4.3326    2.3009    0.6357 O   0  0  0  0  0  0  0  0  0  0  0  0
    0.3266   -1.1531   -2.1569 O   0  0  0  0  0  0  0  0  0  0  0  0
   -4.1303   -1.7422   -1.6255 H   0  0  0  0  0  0  0  0  0  0  0  0
   -4.6547   -0.0483   -1.6580 H   0  0  0  0  0  0  0  0  0  0  0  0
   -5.2395   -1.1374   -0.3895 H   0  0  0  0  0  0  0  0  0  0  0  0
   -3.7494    1.5870    0.1803 H   0  0  0  0  0  0  0  0  0  0  0  0
   -2.7541    0.9247    1.4896 H   0  0  0  0  0  0  0  0  0  0  0  0
   -4.4524    0.4703    1.3595 H   0  0  0  0  0  0  0  0  0  0  0  0
    1.8411   -2.2037   -0.3081 H   0  0  0  0  0  0  0  0  0  0  0  0
    4.0076   -2.1879    0.8964 H   0  0  0  0  0  0  0  0  0  0  0  0
    1.9871    2.0965   -0.6336 H   0  0  0  0  0  0  0  0  0  0  0  0
   -0.6437   -1.0151    0.3750 H   0  0  0  0  0  0  0  0  0  0  0  0
   -0.7455    0.7591    0.4042 H   0  0  0  0  0  0  0  0  0  0  0  0
   -2.9562   -1.3680    0.5252 H   0  0  0  0  0  0  0  0  0  0  0  0
    0.3236    0.8588   -1.8657 H   0  0  0  0  0  0  0  0  0  0  0  0
   -2.2046    0.6531   -1.4930 H   0  0  0  0  0  0  0  0  0  0  0  0
    5.6504    0.8947    1.5024 H   0  0  0  0  0  0  0  0  0  0  0  0
    3.8520    3.0417    0.2289 H   0  0  0  0  0  0  0  0  0  0  0  0
   -0.6352   -1.3064   -2.2549 H   0  0  0  0  0  0  0  0  0  0  0  0
  1  7  1  0
  2  7  1  0
  3  4  2  0
  3  8  1  0
  4  9  1  0
  5  8  2  0
  5 10  1  0
  6 11  1  0
  6 12  1  0
  7 12  1  0
  8 11  1  0
  9 10  2  0
  9 13  1  0
 10 14  1  0
 11 15  1  0
  1 16  1  0
  1 17  1  0
  1 18  1  0
  2 19  1  0
  2 20  1  0
  2 21  1  0
  3 22  1  0
  4 23  1  0
  5 24  1  0
  6 25  1  0
  6 26  1  0
  7 27  1  0
 11 28  1  0
 12 29  1  0
 13 30  1  0
 14 31  1  0
 15 32  1  0
M  END
