
     RDKit          3D

 26 27  0  0  0  0  0  0  0  0999 V2000
    1.8174   -0.6169    0.1568 C   0  0  0  0  0  0  0  0  0  0  0  0
    3.2583   -0.7351    0.1219 C   0  0  0  0  0  0  0  0  0  0  0  0
    1.1953    0.5348    0.4584 C   0  0  0  0  0  0  0  0  0  0  0  0
    4.0084   -1.8165   -0.1435 C   0  0  0  0  0  0  0  0  0  0  0  0
   -1.1169   -0.3146    1.0028 C   0  0  0  0  0  0  0  0  0  0  0  0
   -2.5039   -0.1325    1.0572 C   0  0  0  0  0  0  0  0  0  0  0  0
   -0.8213    1.9085    0.0624 C   0  0  0  0  0  0  0  0  0  0  0  0
   -4.2374    2.7488    0.0350 C   0  0  0  0  0  0  0  0  0  0  0  0
   -0.2667    0.6943    0.4949 C   0  0  0  0  0  0  0  0  0  0  0  0
   -3.0097    1.0669    0.6092 C   0  0  0  0  0  0  0  0  0  0  0  0
   -2.1913    2.0600    0.1272 C   0  0  0  0  0  0  0  0  0  0  0  0
    3.6439   -3.2047   -0.4623 C   0  0  0  0  0  0  0  0  0  0  0  0
    2.3466   -3.5040   -0.3380 O   0  0  0  0  0  0  0  0  0  0  0  0
    4.4548   -4.0518   -0.7974 O   0  0  0  0  0  0  0  0  0  0  0  0
   -4.3224    1.4194    0.5890 O   0  0  0  0  0  0  0  0  0  0  0  0
   -2.8868    3.1642   -0.2570 O   0  0  0  0  0  0  0  0  0  0  0  0
    1.2265   -1.4936   -0.0890 H   0  0  0  0  0  0  0  0  0  0  0  0
    3.8023    0.1866    0.3321 H   0  0  0  0  0  0  0  0  0  0  0  0
    1.7678    1.4334    0.6773 H   0  0  0  0  0  0  0  0  0  0  0  0
    5.0889   -1.6870   -0.1403 H   0  0  0  0  0  0  0  0  0  0  0  0
   -0.7003   -1.2500    1.3710 H   0  0  0  0  0  0  0  0  0  0  0  0
   -3.1573   -0.9059    1.4441 H   0  0  0  0  0  0  0  0  0  0  0  0
   -0.2037    2.7124   -0.3235 H   0  0  0  0  0  0  0  0  0  0  0  0
   -4.6742    3.4552    0.7504 H   0  0  0  0  0  0  0  0  0  0  0  0
   -4.8220    2.7806   -0.8917 H   0  0  0  0  0  0  0  0  0  0  0  0
    2.3038   -4.4524   -0.5785 H   0  0  0  0  0  0  0  0  0  0  0  0
  1  2  1  0
  1  3  2  3
  2  4  2  3
  3  9  1  0
  4 12  1  0
  5  6  2  0
  5  9  1  0
  6 10  1  0
  7  9  2  0
  7 11  1  0
  8 15  1  0
  8 16  1  0
 10 11  2  0
 10 15  1  0
 11 16  1  0
 12 13  1  0
 12 14  2  0
  1 17  1  0
  2 18  1  0
  3 19  1  0
  4 20  1  0
  5 21  1  0
  6 22  1  0
  7 23  1  0
  8 24  1  0
  8 25  1  0
 13 26  1  0
M  END
