
     RDKit          3D

 27 28  0  0  0  0  0  0  0  0999 V2000
    3.2759    0.4603   -0.9673 C   0  0  0  0  0  0  0  0  0  0  0  0
    3.8112    0.1279    0.2684 C   0  0  0  0  0  0  0  0  0  0  0  0
   -3.2205   -0.3636    0.7304 C   0  0  0  0  0  0  0  0  0  0  0  0
   -2.6347   -1.2515   -0.3228 C   0  0  0  0  0  0  0  0  0  0  0  0
    1.8885    0.4956   -1.1471 C   0  0  0  0  0  0  0  0  0  0  0  0
    2.9573   -0.1726    1.3237 C   0  0  0  0  0  0  0  0  0  0  0  0
   -2.5958    0.7045    1.2411 C   0  0  0  0  0  0  0  0  0  0  0  0
   -1.1072   -1.1971   -0.3456 C   0  0  0  0  0  0  0  0  0  0  0  0
    0.9878    0.2032   -0.0957 C   0  0  0  0  0  0  0  0  0  0  0  0
    1.5648   -0.1402    1.1509 C   0  0  0  0  0  0  0  0  0  0  0  0
   -1.2563    1.1237    0.7481 C   0  0  0  0  0  0  0  0  0  0  0  0
   -0.5431    0.2421   -0.3242 C   0  0  0  0  0  0  0  0  0  0  0  0
    0.6369   -0.5650    2.5519 Cl  0  0  0  0  0  0  0  0  0  0  0  0
   -0.9163    0.8700   -1.6249 N   0  0  0  0  0  0  0  0  0  0  0  0
   -0.8000    2.1988    1.1457 O   0  0  0  0  0  0  0  0  0  0  0  0
    3.9362    0.6987   -1.7982 H   0  0  0  0  0  0  0  0  0  0  0  0
    4.8881    0.1038    0.4120 H   0  0  0  0  0  0  0  0  0  0  0  0
   -4.2214   -0.6052    1.0800 H   0  0  0  0  0  0  0  0  0  0  0  0
   -3.0512   -0.9756   -1.2983 H   0  0  0  0  0  0  0  0  0  0  0  0
   -2.9434   -2.2857   -0.1292 H   0  0  0  0  0  0  0  0  0  0  0  0
    1.5375    0.7674   -2.1387 H   0  0  0  0  0  0  0  0  0  0  0  0
    3.3831   -0.4333    2.2903 H   0  0  0  0  0  0  0  0  0  0  0  0
   -3.0483    1.3388    1.9938 H   0  0  0  0  0  0  0  0  0  0  0  0
   -0.7397   -1.7426   -1.2260 H   0  0  0  0  0  0  0  0  0  0  0  0
   -0.7463   -1.7742    0.5135 H   0  0  0  0  0  0  0  0  0  0  0  0
   -0.5046    0.3527   -2.3956 H   0  0  0  0  0  0  0  0  0  0  0  0
   -0.5389    1.8192   -1.6362 H   0  0  0  0  0  0  0  0  0  0  0  0
  1  2  2  0
  1  5  1  0
  2  6  1  0
  3  4  1  0
  3  7  2  0
  4  8  1  0
  5  9  2  0
  6 10  2  0
  7 11  1  0
  8 12  1  0
  9 10  1  0
  9 12  1  0
 10 13  1  0
 11 12  1  0
 11 15  2  0
 12 14  1  0
  1 16  1  0
  2 17  1  0
  3 18  1  0
  4 19  1  0
  4 20  1  0
  5 21  1  0
  6 22  1  0
  7 23  1  0
  8 24  1  0
  8 25  1  0
 14 26  1  0
 14 27  1  0
M  END
