
     RDKit          3D

 34 34  0  0  0  0  0  0  0  0999 V2000
   -3.8479   -1.4378    0.0732 C   0  0  0  0  0  0  0  0  0  0  0  0
   -0.0642    3.0840   -2.3555 C   0  0  0  0  0  0  0  0  0  0  0  0
   -2.9212   -0.3309    0.5503 C   0  0  0  0  0  0  0  0  0  0  0  0
   -1.7508   -0.1257   -0.4132 C   0  0  0  0  0  0  0  0  0  0  0  0
    3.0247   -1.8778    2.4966 C   0  0  0  0  0  0  0  0  0  0  0  0
    2.7348   -0.5142    2.5365 C   0  0  0  0  0  0  0  0  0  0  0  0
    2.7682   -2.6124    1.3404 C   0  0  0  0  0  0  0  0  0  0  0  0
    2.1804    0.1192    1.4211 C   0  0  0  0  0  0  0  0  0  0  0  0
    2.2147   -1.9838    0.2241 C   0  0  0  0  0  0  0  0  0  0  0  0
   -0.8206    0.9929    0.0778 C   0  0  0  0  0  0  0  0  0  0  0  0
    1.9064   -0.6175    0.2631 C   0  0  0  0  0  0  0  0  0  0  0  0
    0.4027    1.2439   -0.8227 C   0  0  0  0  0  0  0  0  0  0  0  0
    1.3204    0.0053   -0.9584 C   0  0  0  0  0  0  0  0  0  0  0  0
   -0.0510    1.6412   -2.1767 N   0  0  0  0  0  0  0  0  0  0  0  0
    1.6204   -0.4695   -2.0570 O   0  0  0  0  0  0  0  0  0  0  0  0
   -4.2694   -1.2005   -0.9088 H   0  0  0  0  0  0  0  0  0  0  0  0
   -4.6766   -1.5677    0.7762 H   0  0  0  0  0  0  0  0  0  0  0  0
   -3.3142   -2.3906   -0.0027 H   0  0  0  0  0  0  0  0  0  0  0  0
   -0.4286    3.3232   -3.3593 H   0  0  0  0  0  0  0  0  0  0  0  0
   -0.7343    3.5684   -1.6384 H   0  0  0  0  0  0  0  0  0  0  0  0
    0.9390    3.5104   -2.2530 H   0  0  0  0  0  0  0  0  0  0  0  0
   -3.4922    0.5999    0.6463 H   0  0  0  0  0  0  0  0  0  0  0  0
   -2.5428   -0.5845    1.5474 H   0  0  0  0  0  0  0  0  0  0  0  0
   -2.1428    0.1184   -1.4073 H   0  0  0  0  0  0  0  0  0  0  0  0
   -1.1926   -1.0644   -0.5062 H   0  0  0  0  0  0  0  0  0  0  0  0
    3.4583   -2.3676    3.3654 H   0  0  0  0  0  0  0  0  0  0  0  0
    2.9474    0.0572    3.4371 H   0  0  0  0  0  0  0  0  0  0  0  0
    3.0020   -3.6737    1.3048 H   0  0  0  0  0  0  0  0  0  0  0  0
    1.9852    1.1856    1.4773 H   0  0  0  0  0  0  0  0  0  0  0  0
    2.0226   -2.5631   -0.6774 H   0  0  0  0  0  0  0  0  0  0  0  0
   -1.3984    1.9227    0.1631 H   0  0  0  0  0  0  0  0  0  0  0  0
   -0.4929    0.7531    1.0953 H   0  0  0  0  0  0  0  0  0  0  0  0
    1.0262    2.0414   -0.4000 H   0  0  0  0  0  0  0  0  0  0  0  0
    0.5870    1.2149   -2.8593 H   0  0  0  0  0  0  0  0  0  0  0  0
  1  3  1  0
  2 14  1  0
  3  4  1  0
  4 10  1  0
  5  6  2  0
  5  7  1  0
  6  8  1  0
  7  9  2  0
  8 11  2  0
  9 11  1  0
 10 12  1  0
 11 13  1  0
 12 13  1  0
 12 14  1  0
 13 15  2  0
  1 16  1  0
  1 17  1  0
  1 18  1  0
  2 19  1  0
  2 20  1  0
  2 21  1  0
  3 22  1  0
  3 23  1  0
  4 24  1  0
  4 25  1  0
  5 26  1  0
  6 27  1  0
  7 28  1  0
  8 29  1  0
  9 30  1  0
 10 31  1  0
 10 32  1  0
 12 33  1  0
 14 34  1  0
M  END
