
     RDKit          3D

 30 31  0  0  0  0  0  0  0  0999 V2000
   -3.6462   -1.4291    1.1128 C   0  0  0  0  0  0  0  0  0  0  0  0
    3.2292   -2.5750    0.1008 C   0  0  0  0  0  0  0  0  0  0  0  0
   -1.9443    2.7330   -0.3799 C   0  0  0  0  0  0  0  0  0  0  0  0
   -2.4227   -1.8220    0.7345 C   0  0  0  0  0  0  0  0  0  0  0  0
   -1.7905   -1.4637   -0.5823 C   0  0  0  0  0  0  0  0  0  0  0  0
    0.7061   -1.3155   -0.2425 C   0  0  0  0  0  0  0  0  0  0  0  0
    2.2323    2.8912    0.0387 C   0  0  0  0  0  0  0  0  0  0  0  0
   -0.5302   -0.6378   -0.4116 C   0  0  0  0  0  0  0  0  0  0  0  0
    1.8977   -0.6127   -0.0607 C   0  0  0  0  0  0  0  0  0  0  0  0
   -0.5775    0.7737   -0.3832 C   0  0  0  0  0  0  0  0  0  0  0  0
    1.8167    0.7695   -0.0495 C   0  0  0  0  0  0  0  0  0  0  0  0
    0.6220    1.4479   -0.2048 C   0  0  0  0  0  0  0  0  0  0  0  0
    3.1374   -1.1571    0.1073 O   0  0  0  0  0  0  0  0  0  0  0  0
   -1.8154    1.3288   -0.5492 O   0  0  0  0  0  0  0  0  0  0  0  0
    2.8786    1.6141    0.1111 O   0  0  0  0  0  0  0  0  0  0  0  0
    0.8121    2.7990   -0.1621 O   0  0  0  0  0  0  0  0  0  0  0  0
   -4.2623   -0.8009    0.4764 H   0  0  0  0  0  0  0  0  0  0  0  0
   -4.0506   -1.7185    2.0775 H   0  0  0  0  0  0  0  0  0  0  0  0
    2.6566   -3.0116    0.9257 H   0  0  0  0  0  0  0  0  0  0  0  0
    4.2800   -2.8431    0.2468 H   0  0  0  0  0  0  0  0  0  0  0  0
    2.9115   -2.9869   -0.8628 H   0  0  0  0  0  0  0  0  0  0  0  0
   -1.6083    3.0498    0.6127 H   0  0  0  0  0  0  0  0  0  0  0  0
   -3.0083    2.9782   -0.4567 H   0  0  0  0  0  0  0  0  0  0  0  0
   -1.4277    3.2748   -1.1782 H   0  0  0  0  0  0  0  0  0  0  0  0
   -1.8386   -2.4444    1.4085 H   0  0  0  0  0  0  0  0  0  0  0  0
   -1.5439   -2.3921   -1.1138 H   0  0  0  0  0  0  0  0  0  0  0  0
   -2.4990   -0.9442   -1.2392 H   0  0  0  0  0  0  0  0  0  0  0  0
    0.6978   -2.4015   -0.2569 H   0  0  0  0  0  0  0  0  0  0  0  0
    2.6674    3.4607   -0.7906 H   0  0  0  0  0  0  0  0  0  0  0  0
    2.4199    3.4355    0.9713 H   0  0  0  0  0  0  0  0  0  0  0  0
  1  4  2  3
  2 13  1  0
  3 14  1  0
  4  5  1  0
  5  8  1  0
  6  8  2  0
  6  9  1  0
  7 15  1  0
  7 16  1  0
  8 10  1  0
  9 11  2  0
  9 13  1  0
 10 12  2  0
 10 14  1  0
 11 12  1  0
 11 15  1  0
 12 16  1  0
  1 17  1  0
  1 18  1  0
  2 19  1  0
  2 20  1  0
  2 21  1  0
  3 22  1  0
  3 23  1  0
  3 24  1  0
  4 25  1  0
  5 26  1  0
  5 27  1  0
  6 28  1  0
  7 29  1  0
  7 30  1  0
M  END
