
     RDKit          3D

 30 30  0  0  0  0  0  0  0  0999 V2000
    0.7628    1.5768    0.0354 C   0  0  0  0  0  0  0  0  0  0  0  0
   -4.2850    0.5218    1.3033 C   0  0  0  0  0  0  0  0  0  0  0  0
   -3.2325    0.4751    2.2154 C   0  0  0  0  0  0  0  0  0  0  0  0
   -4.0702    0.1623   -0.0257 C   0  0  0  0  0  0  0  0  0  0  0  0
    3.7604   -1.3355   -1.5355 C   0  0  0  0  0  0  0  0  0  0  0  0
   -1.9633    0.0695    1.7993 C   0  0  0  0  0  0  0  0  0  0  0  0
   -2.8020   -0.2433   -0.4439 C   0  0  0  0  0  0  0  0  0  0  0  0
    4.5801   -0.2745   -2.1326 C   0  0  0  0  0  0  0  0  0  0  0  0
    2.6099   -0.7607   -0.6988 C   0  0  0  0  0  0  0  0  0  0  0  0
   -0.3603   -0.7230    0.0064 C   0  0  0  0  0  0  0  0  0  0  0  0
    0.3865    0.3560   -0.8132 C   0  0  0  0  0  0  0  0  0  0  0  0
   -1.7357   -0.2927    0.4647 C   0  0  0  0  0  0  0  0  0  0  0  0
    5.2268    0.5706   -2.5957 N   0  0  0  0  0  0  0  0  0  0  0  0
    1.5564   -0.1825   -1.5418 N   0  0  0  0  0  0  0  0  0  0  0  0
    1.3444    1.2964    0.9197 H   0  0  0  0  0  0  0  0  0  0  0  0
    1.3511    2.2943   -0.5474 H   0  0  0  0  0  0  0  0  0  0  0  0
   -0.1332    2.1038    0.3794 H   0  0  0  0  0  0  0  0  0  0  0  0
   -5.2729    0.8372    1.6283 H   0  0  0  0  0  0  0  0  0  0  0  0
   -3.4002    0.7548    3.2521 H   0  0  0  0  0  0  0  0  0  0  0  0
   -4.8908    0.1969   -0.7375 H   0  0  0  0  0  0  0  0  0  0  0  0
    4.3949   -1.9500   -0.8858 H   0  0  0  0  0  0  0  0  0  0  0  0
    3.3706   -2.0002   -2.3153 H   0  0  0  0  0  0  0  0  0  0  0  0
   -1.1533    0.0406    2.5243 H   0  0  0  0  0  0  0  0  0  0  0  0
   -2.6499   -0.5230   -1.4843 H   0  0  0  0  0  0  0  0  0  0  0  0
    3.0035   -0.0157    0.0018 H   0  0  0  0  0  0  0  0  0  0  0  0
    2.1958   -1.5877   -0.1123 H   0  0  0  0  0  0  0  0  0  0  0  0
   -0.4803   -1.6321   -0.5987 H   0  0  0  0  0  0  0  0  0  0  0  0
    0.2334   -1.0214    0.8798 H   0  0  0  0  0  0  0  0  0  0  0  0
   -0.2945    0.7146   -1.5961 H   0  0  0  0  0  0  0  0  0  0  0  0
    1.9475    0.5715   -2.1128 H   0  0  0  0  0  0  0  0  0  0  0  0
  1 11  1  0
  2  3  2  0
  2  4  1  0
  3  6  1  0
  4  7  2  0
  5  8  1  0
  5  9  1  0
  6 12  2  0
  7 12  1  0
  8 13  3  0
  9 14  1  0
 10 11  1  0
 10 12  1  0
 11 14  1  0
  1 15  1  0
  1 16  1  0
  1 17  1  0
  2 18  1  0
  3 19  1  0
  4 20  1  0
  5 21  1  0
  5 22  1  0
  6 23  1  0
  7 24  1  0
  9 25  1  0
  9 26  1  0
 10 27  1  0
 10 28  1  0
 11 29  1  0
 14 30  1  0
M  END
