
     RDKit          3D

 31 31  0  0  0  0  0  0  0  0999 V2000
   -3.1567   -2.7011   -0.7237 C   0  0  0  0  0  0  0  0  0  0  0  0
    4.7144    1.9654   -0.0779 C   0  0  0  0  0  0  0  0  0  0  0  0
   -2.9214    0.9876   -0.0915 C   0  0  0  0  0  0  0  0  0  0  0  0
   -2.3498   -2.0122    0.3681 C   0  0  0  0  0  0  0  0  0  0  0  0
    2.9656    1.0522    1.4745 C   0  0  0  0  0  0  0  0  0  0  0  0
    2.4832    1.1100   -0.8870 C   0  0  0  0  0  0  0  0  0  0  0  0
    1.7083    0.4913    1.7153 C   0  0  0  0  0  0  0  0  0  0  0  0
    1.2249    0.5461   -0.6475 C   0  0  0  0  0  0  0  0  0  0  0  0
    3.3595    1.3729    0.1716 C   0  0  0  0  0  0  0  0  0  0  0  0
    0.8289    0.2281    0.6556 C   0  0  0  0  0  0  0  0  0  0  0  0
   -1.3813   -0.9353   -0.1649 C   0  0  0  0  0  0  0  0  0  0  0  0
   -0.4994   -0.3868    0.9758 C   0  0  0  0  0  0  0  0  0  0  0  0
   -2.0323    0.1669   -0.9073 N   0  0  0  0  0  0  0  0  0  0  0  0
   -0.8510   -0.4514    2.1561 O   0  0  0  0  0  0  0  0  0  0  0  0
   -3.8549   -2.0098   -1.2040 H   0  0  0  0  0  0  0  0  0  0  0  0
   -2.5001   -3.1205   -1.4927 H   0  0  0  0  0  0  0  0  0  0  0  0
   -3.7438   -3.5197   -0.2954 H   0  0  0  0  0  0  0  0  0  0  0  0
    4.8106    2.3282   -1.1076 H   0  0  0  0  0  0  0  0  0  0  0  0
    5.4908    1.2128    0.0945 H   0  0  0  0  0  0  0  0  0  0  0  0
    4.8856    2.8175    0.5890 H   0  0  0  0  0  0  0  0  0  0  0  0
   -3.7653    0.4168    0.3051 H   0  0  0  0  0  0  0  0  0  0  0  0
   -2.3919    1.4730    0.7331 H   0  0  0  0  0  0  0  0  0  0  0  0
   -3.3344    1.7862   -0.7161 H   0  0  0  0  0  0  0  0  0  0  0  0
   -3.0347   -1.5933    1.1144 H   0  0  0  0  0  0  0  0  0  0  0  0
   -1.7645   -2.7776    0.8954 H   0  0  0  0  0  0  0  0  0  0  0  0
    3.6325    1.2399    2.3129 H   0  0  0  0  0  0  0  0  0  0  0  0
    2.7686    1.3494   -1.9094 H   0  0  0  0  0  0  0  0  0  0  0  0
    1.4207    0.2560    2.7386 H   0  0  0  0  0  0  0  0  0  0  0  0
    0.5686    0.3822   -1.4968 H   0  0  0  0  0  0  0  0  0  0  0  0
   -0.7090   -1.4503   -0.8633 H   0  0  0  0  0  0  0  0  0  0  0  0
   -2.5715   -0.2245   -1.6790 H   0  0  0  0  0  0  0  0  0  0  0  0
  1  4  1  0
  2  9  1  0
  3 13  1  0
  4 11  1  0
  5  7  2  0
  5  9  1  0
  6  8  1  0
  6  9  2  0
  7 10  1  0
  8 10  2  0
 10 12  1  0
 11 12  1  0
 11 13  1  0
 12 14  2  0
  1 15  1  0
  1 16  1  0
  1 17  1  0
  2 18  1  0
  2 19  1  0
  2 20  1  0
  3 21  1  0
  3 22  1  0
  3 23  1  0
  4 24  1  0
  4 25  1  0
  5 26  1  0
  6 27  1  0
  7 28  1  0
  8 29  1  0
 11 30  1  0
 13 31  1  0
M  END
