
     RDKit          3D

 31 31  0  0  0  0  0  0  0  0999 V2000
    4.0180    1.4635   -0.3740 C   0  0  0  0  0  0  0  0  0  0  0  0
    3.6155   -0.9714    1.2945 C   0  0  0  0  0  0  0  0  0  0  0  0
   -3.5095   -1.5804   -0.7854 C   0  0  0  0  0  0  0  0  0  0  0  0
   -3.4416    0.8507    1.0980 C   0  0  0  0  0  0  0  0  0  0  0  0
    1.5580    1.4077   -0.8682 C   0  0  0  0  0  0  0  0  0  0  0  0
    0.2808    0.8526   -0.7463 C   0  0  0  0  0  0  0  0  0  0  0  0
    1.1817   -0.8655    0.6851 C   0  0  0  0  0  0  0  0  0  0  0  0
    2.6610    0.8325   -0.2201 C   0  0  0  0  0  0  0  0  0  0  0  0
    2.4708   -0.3167    0.5704 C   0  0  0  0  0  0  0  0  0  0  0  0
   -2.4307   -0.4972   -0.7024 C   0  0  0  0  0  0  0  0  0  0  0  0
    0.0829   -0.2918    0.0282 C   0  0  0  0  0  0  0  0  0  0  0  0
   -1.2582   -0.9403    0.1909 C   0  0  0  0  0  0  0  0  0  0  0  0
   -2.9761    0.8142   -0.2856 N   0  0  0  0  0  0  0  0  0  0  0  0
   -1.3875   -1.8299    1.0352 O   0  0  0  0  0  0  0  0  0  0  0  0
    4.7271    0.7446   -0.7964 H   0  0  0  0  0  0  0  0  0  0  0  0
    3.9860    2.3265   -1.0476 H   0  0  0  0  0  0  0  0  0  0  0  0
    4.3857    1.8139    0.5956 H   0  0  0  0  0  0  0  0  0  0  0  0
    4.0774   -0.2663    1.9927 H   0  0  0  0  0  0  0  0  0  0  0  0
    3.2819   -1.8379    1.8754 H   0  0  0  0  0  0  0  0  0  0  0  0
    4.3657   -1.3228    0.5792 H   0  0  0  0  0  0  0  0  0  0  0  0
   -3.9279   -1.8293    0.1953 H   0  0  0  0  0  0  0  0  0  0  0  0
   -3.0878   -2.5043   -1.1974 H   0  0  0  0  0  0  0  0  0  0  0  0
   -4.3305   -1.2684   -1.4399 H   0  0  0  0  0  0  0  0  0  0  0  0
   -4.2594    0.1475    1.2790 H   0  0  0  0  0  0  0  0  0  0  0  0
   -2.6326    0.6582    1.8086 H   0  0  0  0  0  0  0  0  0  0  0  0
   -3.8217    1.8543    1.3158 H   0  0  0  0  0  0  0  0  0  0  0  0
    1.6837    2.3035   -1.4737 H   0  0  0  0  0  0  0  0  0  0  0  0
   -0.5424    1.3467   -1.2537 H   0  0  0  0  0  0  0  0  0  0  0  0
    1.0305   -1.7551    1.2960 H   0  0  0  0  0  0  0  0  0  0  0  0
   -2.0380   -0.3851   -1.7206 H   0  0  0  0  0  0  0  0  0  0  0  0
   -3.7626    1.0460   -0.8931 H   0  0  0  0  0  0  0  0  0  0  0  0
  1  8  1  0
  2  9  1  0
  3 10  1  0
  4 13  1  0
  5  6  2  0
  5  8  1  0
  6 11  1  0
  7  9  1  0
  7 11  2  0
  8  9  2  0
 10 12  1  0
 10 13  1  0
 11 12  1  0
 12 14  2  0
  1 15  1  0
  1 16  1  0
  1 17  1  0
  2 18  1  0
  2 19  1  0
  2 20  1  0
  3 21  1  0
  3 22  1  0
  3 23  1  0
  4 24  1  0
  4 25  1  0
  4 26  1  0
  5 27  1  0
  6 28  1  0
  7 29  1  0
 10 30  1  0
 13 31  1  0
M  END
