
     RDKit          3D

 32 33  0  0  0  0  0  0  0  0999 V2000
    0.8383   -2.6014    1.1638 C   0  0  0  0  0  0  0  0  0  0  0  0
   -1.9539    0.1713    1.3271 C   0  0  0  0  0  0  0  0  0  0  0  0
   -3.5553    1.7644   -0.6786 C   0  0  0  0  0  0  0  0  0  0  0  0
    2.5814   -0.9400    0.4967 C   0  0  0  0  0  0  0  0  0  0  0  0
   -1.0923   -1.1511   -0.6820 C   0  0  0  0  0  0  0  0  0  0  0  0
    0.8104    0.4045   -1.2310 C   0  0  0  0  0  0  0  0  0  0  0  0
    4.0366    1.7960   -1.1585 C   0  0  0  0  0  0  0  0  0  0  0  0
    1.2518   -1.3890    0.3725 C   0  0  0  0  0  0  0  0  0  0  0  0
   -2.2025   -0.2066   -0.1366 C   0  0  0  0  0  0  0  0  0  0  0  0
    0.3501   -0.7078   -0.4973 C   0  0  0  0  0  0  0  0  0  0  0  0
    2.9795    0.1562   -0.2354 C   0  0  0  0  0  0  0  0  0  0  0  0
    2.1182    0.8098   -1.0773 C   0  0  0  0  0  0  0  0  0  0  0  0
   -2.3780    0.9717   -1.0068 N   0  0  0  0  0  0  0  0  0  0  0  0
    4.2217    0.7096   -0.2277 O   0  0  0  0  0  0  0  0  0  0  0  0
    2.7065    1.8593   -1.7114 O   0  0  0  0  0  0  0  0  0  0  0  0
    1.6463   -2.9515    1.8154 H   0  0  0  0  0  0  0  0  0  0  0  0
    0.5813   -3.4239    0.4889 H   0  0  0  0  0  0  0  0  0  0  0  0
   -0.0155   -2.3694    1.8066 H   0  0  0  0  0  0  0  0  0  0  0  0
   -1.1003    0.8490    1.4339 H   0  0  0  0  0  0  0  0  0  0  0  0
   -1.7582   -0.7218    1.9292 H   0  0  0  0  0  0  0  0  0  0  0  0
   -2.8278    0.6617    1.7680 H   0  0  0  0  0  0  0  0  0  0  0  0
   -3.6747    2.5560   -1.4255 H   0  0  0  0  0  0  0  0  0  0  0  0
   -4.4667    1.1583   -0.6877 H   0  0  0  0  0  0  0  0  0  0  0  0
   -3.4560    2.2580    0.2923 H   0  0  0  0  0  0  0  0  0  0  0  0
    3.2907   -1.4382    1.1494 H   0  0  0  0  0  0  0  0  0  0  0  0
   -1.2443   -2.1351   -0.2242 H   0  0  0  0  0  0  0  0  0  0  0  0
   -1.2546   -1.3284   -1.7547 H   0  0  0  0  0  0  0  0  0  0  0  0
    0.1574    0.9474   -1.9060 H   0  0  0  0  0  0  0  0  0  0  0  0
    4.7523    1.6784   -1.9803 H   0  0  0  0  0  0  0  0  0  0  0  0
    4.2474    2.7398   -0.6422 H   0  0  0  0  0  0  0  0  0  0  0  0
   -3.1340   -0.7877   -0.1799 H   0  0  0  0  0  0  0  0  0  0  0  0
   -2.4558    0.6606   -1.9751 H   0  0  0  0  0  0  0  0  0  0  0  0
  1  8  1  0
  2  9  1  0
  3 13  1  0
  4  8  2  0
  4 11  1  0
  5  9  1  0
  5 10  1  0
  6 10  2  0
  6 12  1  0
  7 14  1  0
  7 15  1  0
  8 10  1  0
  9 13  1  0
 11 12  2  0
 11 14  1  0
 12 15  1  0
  1 16  1  0
  1 17  1  0
  1 18  1  0
  2 19  1  0
  2 20  1  0
  2 21  1  0
  3 22  1  0
  3 23  1  0
  3 24  1  0
  4 25  1  0
  5 26  1  0
  5 27  1  0
  6 28  1  0
  7 29  1  0
  7 30  1  0
  9 31  1  0
 13 32  1  0
M  END
