
     RDKit          3D

 33 34  0  0  0  0  0  0  0  0999 V2000
    5.8866   -0.3114    0.6797 C   0  0  0  0  0  0  0  0  0  0  0  0
   -5.2899    0.8700    0.4186 C   0  0  0  0  0  0  0  0  0  0  0  0
   -4.1086    1.7753    0.5936 C   0  0  0  0  0  0  0  0  0  0  0  0
   -4.9606   -0.6213    0.5779 C   0  0  0  0  0  0  0  0  0  0  0  0
   -2.8471    1.3237    0.5409 C   0  0  0  0  0  0  0  0  0  0  0  0
   -3.5179   -0.9807    0.3482 C   0  0  0  0  0  0  0  0  0  0  0  0
   -1.1566   -0.5719    0.1193 C   0  0  0  0  0  0  0  0  0  0  0  0
   -0.1497    0.1276   -0.4307 C   0  0  0  0  0  0  0  0  0  0  0  0
    2.2413    0.3652    0.2579 C   0  0  0  0  0  0  0  0  0  0  0  0
    3.8897   -0.5033   -1.3485 C   0  0  0  0  0  0  0  0  0  0  0  0
   -2.5186   -0.0765    0.2932 C   0  0  0  0  0  0  0  0  0  0  0  0
    1.2461   -0.4036   -0.6072 C   0  0  0  0  0  0  0  0  0  0  0  0
    3.6342   -0.0585   -0.1077 C   0  0  0  0  0  0  0  0  0  0  0  0
    2.8474   -0.5174   -2.3912 C   0  0  0  0  0  0  0  0  0  0  0  0
    3.1497   -0.7209   -3.5601 O   0  0  0  0  0  0  0  0  0  0  0  0
    4.5318    0.0492    0.9298 O   0  0  0  0  0  0  0  0  0  0  0  0
    1.5750   -0.2671   -2.0006 O   0  0  0  0  0  0  0  0  0  0  0  0
    5.9653   -1.3692    0.4089 H   0  0  0  0  0  0  0  0  0  0  0  0
    6.3234    0.3253   -0.0965 H   0  0  0  0  0  0  0  0  0  0  0  0
    6.4523   -0.1557    1.6031 H   0  0  0  0  0  0  0  0  0  0  0  0
   -5.7137    1.0489   -0.5774 H   0  0  0  0  0  0  0  0  0  0  0  0
   -6.0679    1.1413    1.1418 H   0  0  0  0  0  0  0  0  0  0  0  0
   -4.2989    2.8319    0.7562 H   0  0  0  0  0  0  0  0  0  0  0  0
   -5.5902   -1.1976   -0.1105 H   0  0  0  0  0  0  0  0  0  0  0  0
   -5.2310   -0.9466    1.5904 H   0  0  0  0  0  0  0  0  0  0  0  0
   -2.0254    2.0204    0.6792 H   0  0  0  0  0  0  0  0  0  0  0  0
   -3.3128   -2.0412    0.2246 H   0  0  0  0  0  0  0  0  0  0  0  0
   -0.9727   -1.5919    0.4540 H   0  0  0  0  0  0  0  0  0  0  0  0
   -0.3236    1.1349   -0.8025 H   0  0  0  0  0  0  0  0  0  0  0  0
    2.1583    1.4481    0.1004 H   0  0  0  0  0  0  0  0  0  0  0  0
    2.0423    0.1651    1.3177 H   0  0  0  0  0  0  0  0  0  0  0  0
    4.8677   -0.8169   -1.6877 H   0  0  0  0  0  0  0  0  0  0  0  0
    1.2737   -1.4750   -0.3652 H   0  0  0  0  0  0  0  0  0  0  0  0
  1 16  1  0
  2  3  1  0
  2  4  1  0
  3  5  2  0
  4  6  1  0
  5 11  1  0
  6 11  2  0
  7  8  2  3
  7 11  1  0
  8 12  1  0
  9 12  1  0
  9 13  1  0
 10 13  2  0
 10 14  1  0
 12 17  1  0
 13 16  1  0
 14 15  2  0
 14 17  1  0
  1 18  1  0
  1 19  1  0
  1 20  1  0
  2 21  1  0
  2 22  1  0
  3 23  1  0
  4 24  1  0
  4 25  1  0
  5 26  1  0
  6 27  1  0
  7 28  1  0
  8 29  1  0
  9 30  1  0
  9 31  1  0
 10 32  1  0
 12 33  1  0
M  END
