
     RDKit          3D

 33 34  0  0  0  0  0  0  0  0999 V2000
    2.7661    2.0780    0.3910 C   0  0  0  0  0  0  0  0  0  0  0  0
   -3.3605   -1.9934   -1.0719 C   0  0  0  0  0  0  0  0  0  0  0  0
   -3.4530    1.9420    0.0358 C   0  0  0  0  0  0  0  0  0  0  0  0
    1.7547   -1.8881   -0.6105 C   0  0  0  0  0  0  0  0  0  0  0  0
    3.0166   -1.6288    0.2097 C   0  0  0  0  0  0  0  0  0  0  0  0
   -0.6812   -1.2722   -0.5652 C   0  0  0  0  0  0  0  0  0  0  0  0
    2.3821    0.6419    0.7811 C   0  0  0  0  0  0  0  0  0  0  0  0
    0.6471   -0.9337   -0.2347 C   0  0  0  0  0  0  0  0  0  0  0  0
   -1.7533   -0.4503   -0.2040 C   0  0  0  0  0  0  0  0  0  0  0  0
    0.9414    0.2729    0.4328 C   0  0  0  0  0  0  0  0  0  0  0  0
   -0.1480    1.0574    0.8302 C   0  0  0  0  0  0  0  0  0  0  0  0
   -1.4757    0.7337    0.4904 C   0  0  0  0  0  0  0  0  0  0  0  0
    3.3948   -0.2211    0.1237 N   0  0  0  0  0  0  0  0  0  0  0  0
    0.0584    2.1734    1.6028 O   0  0  0  0  0  0  0  0  0  0  0  0
   -3.0659   -0.7485   -0.4523 O   0  0  0  0  0  0  0  0  0  0  0  0
   -2.4109    1.6321    0.9581 O   0  0  0  0  0  0  0  0  0  0  0  0
    2.5450    2.2811   -0.6635 H   0  0  0  0  0  0  0  0  0  0  0  0
    3.8365    2.2562    0.5524 H   0  0  0  0  0  0  0  0  0  0  0  0
    2.2441    2.8269    0.9916 H   0  0  0  0  0  0  0  0  0  0  0  0
   -3.0186   -2.8327   -0.4573 H   0  0  0  0  0  0  0  0  0  0  0  0
   -2.9384   -2.0408   -2.0810 H   0  0  0  0  0  0  0  0  0  0  0  0
   -4.4481   -2.0710   -1.1637 H   0  0  0  0  0  0  0  0  0  0  0  0
   -3.7903    2.9608    0.2510 H   0  0  0  0  0  0  0  0  0  0  0  0
   -4.3071    1.2764    0.1897 H   0  0  0  0  0  0  0  0  0  0  0  0
   -3.1154    1.9206   -1.0066 H   0  0  0  0  0  0  0  0  0  0  0  0
    1.4323   -2.9224   -0.4421 H   0  0  0  0  0  0  0  0  0  0  0  0
    1.9676   -1.7708   -1.6803 H   0  0  0  0  0  0  0  0  0  0  0  0
    2.8736   -1.9203    1.2580 H   0  0  0  0  0  0  0  0  0  0  0  0
    3.8347   -2.2451   -0.1789 H   0  0  0  0  0  0  0  0  0  0  0  0
   -0.8459   -2.2063   -1.0940 H   0  0  0  0  0  0  0  0  0  0  0  0
    2.5029    0.5285    1.8661 H   0  0  0  0  0  0  0  0  0  0  0  0
    3.4510    0.0484   -0.8583 H   0  0  0  0  0  0  0  0  0  0  0  0
   -0.8365    2.5150    1.7997 H   0  0  0  0  0  0  0  0  0  0  0  0
  1  7  1  0
  2 15  1  0
  3 16  1  0
  4  5  1  0
  4  8  1  0
  5 13  1  0
  6  8  2  0
  6  9  1  0
  7 10  1  0
  7 13  1  0
  8 10  1  0
  9 12  2  0
  9 15  1  0
 10 11  2  0
 11 12  1  0
 11 14  1  0
 12 16  1  0
  1 17  1  0
  1 18  1  0
  1 19  1  0
  2 20  1  0
  2 21  1  0
  2 22  1  0
  3 23  1  0
  3 24  1  0
  3 25  1  0
  4 26  1  0
  4 27  1  0
  5 28  1  0
  5 29  1  0
  6 30  1  0
  7 31  1  0
 13 32  1  0
 14 33  1  0
M  END
