
     RDKit          3D

 32 32  0  0  0  0  0  0  0  0999 V2000
    0.7839   -1.0542   -2.5529 C   0  0  0  0  0  0  0  0  0  0  0  0
   -3.7896    1.1453    1.5837 C   0  0  0  0  0  0  0  0  0  0  0  0
   -2.8549    0.2544    2.1071 C   0  0  0  0  0  0  0  0  0  0  0  0
   -3.9017    1.3043    0.2038 C   0  0  0  0  0  0  0  0  0  0  0  0
    2.8902   -0.0146    1.2692 C   0  0  0  0  0  0  0  0  0  0  0  0
   -2.0339   -0.4807    1.2505 C   0  0  0  0  0  0  0  0  0  0  0  0
   -3.0803    0.5705   -0.6541 C   0  0  0  0  0  0  0  0  0  0  0  0
    3.9894    1.0228    1.4498 C   0  0  0  0  0  0  0  0  0  0  0  0
    2.0759    0.2783    0.0080 C   0  0  0  0  0  0  0  0  0  0  0  0
   -1.2452   -1.1222   -1.0680 C   0  0  0  0  0  0  0  0  0  0  0  0
    0.1403   -0.4678   -1.2909 C   0  0  0  0  0  0  0  0  0  0  0  0
   -2.1409   -0.3335   -0.1386 C   0  0  0  0  0  0  0  0  0  0  0  0
    4.9569    0.6612    2.8983 Cl  0  0  0  0  0  0  0  0  0  0  0  0
    1.0029   -0.7037   -0.1196 N   0  0  0  0  0  0  0  0  0  0  0  0
    0.9385   -2.1350   -2.4588 H   0  0  0  0  0  0  0  0  0  0  0  0
    0.1447   -0.8826   -3.4259 H   0  0  0  0  0  0  0  0  0  0  0  0
    1.7522   -0.5900   -2.7650 H   0  0  0  0  0  0  0  0  0  0  0  0
   -4.4279    1.7176    2.2514 H   0  0  0  0  0  0  0  0  0  0  0  0
   -2.7605    0.1332    3.1827 H   0  0  0  0  0  0  0  0  0  0  0  0
   -4.6286    2.0010   -0.2049 H   0  0  0  0  0  0  0  0  0  0  0  0
    3.3323   -1.0169    1.2001 H   0  0  0  0  0  0  0  0  0  0  0  0
    2.2308   -0.0108    2.1468 H   0  0  0  0  0  0  0  0  0  0  0  0
   -1.2995   -1.1641    1.6713 H   0  0  0  0  0  0  0  0  0  0  0  0
   -3.1790    0.7087   -1.7280 H   0  0  0  0  0  0  0  0  0  0  0  0
    4.6695    1.0317    0.5927 H   0  0  0  0  0  0  0  0  0  0  0  0
    3.5703    2.0261    1.5724 H   0  0  0  0  0  0  0  0  0  0  0  0
    1.6514    1.2867    0.0800 H   0  0  0  0  0  0  0  0  0  0  0  0
    2.7370    0.2498   -0.8651 H   0  0  0  0  0  0  0  0  0  0  0  0
   -1.7629   -1.2281   -2.0310 H   0  0  0  0  0  0  0  0  0  0  0  0
   -1.1359   -2.1472   -0.6882 H   0  0  0  0  0  0  0  0  0  0  0  0
   -0.0063    0.6098   -1.4418 H   0  0  0  0  0  0  0  0  0  0  0  0
    1.3810   -1.6501   -0.1435 H   0  0  0  0  0  0  0  0  0  0  0  0
  1 11  1  0
  2  3  2  0
  2  4  1  0
  3  6  1  0
  4  7  2  0
  5  8  1  0
  5  9  1  0
  6 12  2  0
  7 12  1  0
  8 13  1  0
  9 14  1  0
 10 11  1  0
 10 12  1  0
 11 14  1  0
  1 15  1  0
  1 16  1  0
  1 17  1  0
  2 18  1  0
  3 19  1  0
  4 20  1  0
  5 21  1  0
  5 22  1  0
  6 23  1  0
  7 24  1  0
  8 25  1  0
  8 26  1  0
  9 27  1  0
  9 28  1  0
 10 29  1  0
 10 30  1  0
 11 31  1  0
 14 32  1  0
M  END
