
     RDKit          3D

 41 42  0  0  0  0  0  0  0  0999 V2000
    5.9370    2.0804   -0.3514 C   0  0  0  0  0  0  0  0  0  0  0  0
    2.6189    0.1227    1.2513 C   0  0  0  0  0  0  0  0  0  0  0  0
    3.5835    1.2181    0.7895 C   0  0  0  0  0  0  0  0  0  0  0  0
   -1.6614    0.6883    0.4305 C   0  0  0  0  0  0  0  0  0  0  0  0
    1.6534   -0.3796    0.1595 C   0  0  0  0  0  0  0  0  0  0  0  0
   -4.1382   -0.9826   -0.6640 C   0  0  0  0  0  0  0  0  0  0  0  0
   -2.7620   -1.4688   -0.2379 C   0  0  0  0  0  0  0  0  0  0  0  0
   -3.7638   -1.0190    0.7933 C   0  0  0  0  0  0  0  0  0  0  0  0
    0.6724   -1.4004    0.7350 C   0  0  0  0  0  0  0  0  0  0  0  0
   -4.3939    0.2779   -1.3716 C   0  0  0  0  0  0  0  0  0  0  0  0
   -0.9099   -0.5951   -1.6868 C   0  0  0  0  0  0  0  0  0  0  0  0
   -1.4524   -0.6645   -0.2483 C   0  0  0  0  0  0  0  0  0  0  0  0
    2.3427   -0.9859   -0.9874 N   0  0  0  0  0  0  0  0  0  0  0  0
   -0.5896   -1.5360    0.5847 N   0  0  0  0  0  0  0  0  0  0  0  0
    1.2622   -2.3513    1.4789 O   0  0  0  0  0  0  0  0  0  0  0  0
   -3.5427    0.9075   -1.9714 O   0  0  0  0  0  0  0  0  0  0  0  0
   -5.6754    0.6648   -1.2896 O   0  0  0  0  0  0  0  0  0  0  0  0
   -0.7921   -1.5426   -2.4509 O   0  0  0  0  0  0  0  0  0  0  0  0
   -0.4823    0.6250   -2.0617 O   0  0  0  0  0  0  0  0  0  0  0  0
   -2.6253    0.1649    2.8267 O   0  0  0  0  0  0  0  0  0  0  0  0
   -4.0221    1.5626    1.2437 O   0  0  0  0  0  0  0  0  0  0  0  0
    5.1542    0.5336    0.1618 S   0  0  0  0  0  0  0  0  0  0  0  0
   -3.0731    0.4989    1.4913 S   0  0  0  0  0  6  0  0  0  0  0  0
    6.0543    2.7501    0.5045 H   0  0  0  0  0  0  0  0  0  0  0  0
    5.3400    2.5711   -1.1244 H   0  0  0  0  0  0  0  0  0  0  0  0
    6.9269    1.8644   -0.7619 H   0  0  0  0  0  0  0  0  0  0  0  0
    1.9985    0.5469    2.0535 H   0  0  0  0  0  0  0  0  0  0  0  0
    3.1669   -0.7062    1.7179 H   0  0  0  0  0  0  0  0  0  0  0  0
    3.8339    1.8507    1.6479 H   0  0  0  0  0  0  0  0  0  0  0  0
    3.1204    1.8520    0.0264 H   0  0  0  0  0  0  0  0  0  0  0  0
   -1.8951    1.4965   -0.2657 H   0  0  0  0  0  0  0  0  0  0  0  0
   -0.8178    1.0068    1.0487 H   0  0  0  0  0  0  0  0  0  0  0  0
    1.0957    0.4876   -0.1951 H   0  0  0  0  0  0  0  0  0  0  0  0
   -4.8256   -1.7645   -0.9803 H   0  0  0  0  0  0  0  0  0  0  0  0
   -2.5887   -2.5332   -0.3725 H   0  0  0  0  0  0  0  0  0  0  0  0
   -4.2111   -1.7398    1.4583 H   0  0  0  0  0  0  0  0  0  0  0  0
    1.6990   -1.5633   -1.5316 H   0  0  0  0  0  0  0  0  0  0  0  0
    3.0598   -1.6269   -0.6385 H   0  0  0  0  0  0  0  0  0  0  0  0
    0.5683   -2.9615    1.7814 H   0  0  0  0  0  0  0  0  0  0  0  0
   -5.7034    1.5473   -1.7144 H   0  0  0  0  0  0  0  0  0  0  0  0
   -0.1622    0.5031   -2.9816 H   0  0  0  0  0  0  0  0  0  0  0  0
  1 22  1  0
  2  3  1  0
  2  5  1  0
  3 22  1  0
  4 12  1  0
  4 23  1  0
  5  9  1  0
  5 13  1  0
  6  7  1  0
  6  8  1  0
  6 10  1  0
  7  8  1  0
  7 12  1  0
  8 23  1  0
  9 14  2  3
  9 15  1  0
 10 16  2  0
 10 17  1  0
 11 12  1  0
 11 18  2  0
 11 19  1  0
 12 14  1  0
 20 23  2  0
 21 23  2  0
  1 24  1  0
  1 25  1  0
  1 26  1  0
  2 27  1  0
  2 28  1  0
  3 29  1  0
  3 30  1  0
  4 31  1  0
  4 32  1  0
  5 33  1  0
  6 34  1  0
  7 35  1  0
  8 36  1  0
 13 37  1  0
 13 38  1  0
 15 39  1  0
 17 40  1  0
 19 41  1  0
M  END
